<connections>
  <connection from="np6_nt6" to="nt6_nt12" fromLane="0" toLane="0"/>
  <connection from="nt12_nt6" to="nt6_np6" fromLane="0" toLane="0"/>
  <connection from="nt5_nt6" to="nt6_np7" fromLane="0" toLane="0"/>
  <connection from="np7_nt6" to="nt6_nt5" fromLane="0" toLane="0"/>
  <connection from="np6_nt6" to="nt6_nt5" fromLane="0" toLane="1"/>
  <connection from="nt12_nt6" to="nt6_np7" fromLane="0" toLane="1"/>
  <connection from="nt5_nt6" to="nt6_nt12" fromLane="1" toLane="0"/>
  <connection from="np7_nt6" to="nt6_np6" fromLane="1" toLane="0"/>
  <connection from="np6_nt6" to="nt6_np7" fromLane="0" toLane="0"/>
  <connection from="nt12_nt6" to="nt6_nt5" fromLane="0" toLane="0"/>
  <connection from="nt5_nt6" to="nt6_np6" fromLane="0" toLane="0"/>
  <connection from="np7_nt6" to="nt6_nt12" fromLane="0" toLane="0"/>
  <connection from="nt6_nt12" to="nt12_nt18" fromLane="0" toLane="0"/>
  <connection from="nt18_nt12" to="nt12_nt6" fromLane="0" toLane="0"/>
  <connection from="nt11_nt12" to="nt12_np8" fromLane="0" toLane="0"/>
  <connection from="np8_nt12" to="nt12_nt11" fromLane="0" toLane="0"/>
  <connection from="nt6_nt12" to="nt12_nt11" fromLane="0" toLane="1"/>
  <connection from="nt18_nt12" to="nt12_np8" fromLane="0" toLane="1"/>
  <connection from="nt11_nt12" to="nt12_nt18" fromLane="1" toLane="0"/>
  <connection from="np8_nt12" to="nt12_nt6" fromLane="1" toLane="0"/>
  <connection from="nt6_nt12" to="nt12_np8" fromLane="0" toLane="0"/>
  <connection from="nt18_nt12" to="nt12_nt11" fromLane="0" toLane="0"/>
  <connection from="nt11_nt12" to="nt12_nt6" fromLane="0" toLane="0"/>
  <connection from="np8_nt12" to="nt12_nt18" fromLane="0" toLane="0"/>
  <connection from="nt12_nt18" to="nt18_nt24" fromLane="0" toLane="0"/>
  <connection from="nt24_nt18" to="nt18_nt12" fromLane="0" toLane="0"/>
  <connection from="nt17_nt18" to="nt18_np9" fromLane="0" toLane="0"/>
  <connection from="np9_nt18" to="nt18_nt17" fromLane="0" toLane="0"/>
  <connection from="nt12_nt18" to="nt18_nt17" fromLane="0" toLane="1"/>
  <connection from="nt24_nt18" to="nt18_np9" fromLane="0" toLane="1"/>
  <connection from="nt17_nt18" to="nt18_nt24" fromLane="1" toLane="0"/>
  <connection from="np9_nt18" to="nt18_nt12" fromLane="1" toLane="0"/>
  <connection from="nt12_nt18" to="nt18_np9" fromLane="0" toLane="0"/>
  <connection from="nt24_nt18" to="nt18_nt17" fromLane="0" toLane="0"/>
  <connection from="nt17_nt18" to="nt18_nt12" fromLane="0" toLane="0"/>
  <connection from="np9_nt18" to="nt18_nt24" fromLane="0" toLane="0"/>
  <connection from="nt18_nt24" to="nt24_nt30" fromLane="0" toLane="0"/>
  <connection from="nt30_nt24" to="nt24_nt18" fromLane="0" toLane="0"/>
  <connection from="nt23_nt24" to="nt24_np10" fromLane="0" toLane="0"/>
  <connection from="np10_nt24" to="nt24_nt23" fromLane="0" toLane="0"/>
  <connection from="nt18_nt24" to="nt24_nt23" fromLane="0" toLane="1"/>
  <connection from="nt30_nt24" to="nt24_np10" fromLane="0" toLane="1"/>
  <connection from="nt23_nt24" to="nt24_nt30" fromLane="1" toLane="0"/>
  <connection from="np10_nt24" to="nt24_nt18" fromLane="1" toLane="0"/>
  <connection from="nt18_nt24" to="nt24_np10" fromLane="0" toLane="0"/>
  <connection from="nt30_nt24" to="nt24_nt23" fromLane="0" toLane="0"/>
  <connection from="nt23_nt24" to="nt24_nt18" fromLane="0" toLane="0"/>
  <connection from="np10_nt24" to="nt24_nt30" fromLane="0" toLane="0"/>
  <connection from="nt24_nt30" to="nt30_nt36" fromLane="0" toLane="0"/>
  <connection from="nt36_nt30" to="nt30_nt24" fromLane="0" toLane="0"/>
  <connection from="nt29_nt30" to="nt30_np11" fromLane="0" toLane="0"/>
  <connection from="np11_nt30" to="nt30_nt29" fromLane="0" toLane="0"/>
  <connection from="nt24_nt30" to="nt30_nt29" fromLane="0" toLane="1"/>
  <connection from="nt36_nt30" to="nt30_np11" fromLane="0" toLane="1"/>
  <connection from="nt29_nt30" to="nt30_nt36" fromLane="1" toLane="0"/>
  <connection from="np11_nt30" to="nt30_nt24" fromLane="1" toLane="0"/>
  <connection from="nt24_nt30" to="nt30_np11" fromLane="0" toLane="0"/>
  <connection from="nt36_nt30" to="nt30_nt29" fromLane="0" toLane="0"/>
  <connection from="nt29_nt30" to="nt30_nt24" fromLane="0" toLane="0"/>
  <connection from="np11_nt30" to="nt30_nt36" fromLane="0" toLane="0"/>
  <connection from="nt30_nt36" to="nt36_np13" fromLane="0" toLane="0"/>
  <connection from="np13_nt36" to="nt36_nt30" fromLane="0" toLane="0"/>
  <connection from="nt35_nt36" to="nt36_np12" fromLane="0" toLane="0"/>
  <connection from="np12_nt36" to="nt36_nt35" fromLane="0" toLane="0"/>
  <connection from="nt30_nt36" to="nt36_nt35" fromLane="0" toLane="1"/>
  <connection from="np13_nt36" to="nt36_np12" fromLane="0" toLane="1"/>
  <connection from="nt35_nt36" to="nt36_np13" fromLane="1" toLane="0"/>
  <connection from="np12_nt36" to="nt36_nt30" fromLane="1" toLane="0"/>
  <connection from="nt30_nt36" to="nt36_np12" fromLane="0" toLane="0"/>
  <connection from="np13_nt36" to="nt36_nt35" fromLane="0" toLane="0"/>
  <connection from="nt35_nt36" to="nt36_nt30" fromLane="0" toLane="0"/>
  <connection from="np12_nt36" to="nt36_np13" fromLane="0" toLane="0"/>
  <connection from="nt25_nt31" to="nt31_np18" fromLane="0" toLane="0"/>
  <connection from="np18_nt31" to="nt31_nt25" fromLane="0" toLane="0"/>
  <connection from="np19_nt31" to="nt31_nt32" fromLane="0" toLane="0"/>
  <connection from="nt32_nt31" to="nt31_np19" fromLane="0" toLane="0"/>
  <connection from="nt25_nt31" to="nt31_np19" fromLane="0" toLane="1"/>
  <connection from="np18_nt31" to="nt31_nt32" fromLane="0" toLane="1"/>
  <connection from="np19_nt31" to="nt31_np18" fromLane="1" toLane="0"/>
  <connection from="nt32_nt31" to="nt31_nt25" fromLane="1" toLane="0"/>
  <connection from="nt25_nt31" to="nt31_nt32" fromLane="0" toLane="0"/>
  <connection from="np18_nt31" to="nt31_np19" fromLane="0" toLane="0"/>
  <connection from="np19_nt31" to="nt31_nt25" fromLane="0" toLane="0"/>
  <connection from="nt32_nt31" to="nt31_np18" fromLane="0" toLane="0"/>
  <connection from="nt19_nt25" to="nt25_nt31" fromLane="0" toLane="0"/>
  <connection from="nt31_nt25" to="nt25_nt19" fromLane="0" toLane="0"/>
  <connection from="np20_nt25" to="nt25_nt26" fromLane="0" toLane="0"/>
  <connection from="nt26_nt25" to="nt25_np20" fromLane="0" toLane="0"/>
  <connection from="nt19_nt25" to="nt25_np20" fromLane="0" toLane="1"/>
  <connection from="nt31_nt25" to="nt25_nt26" fromLane="0" toLane="1"/>
  <connection from="np20_nt25" to="nt25_nt31" fromLane="1" toLane="0"/>
  <connection from="nt26_nt25" to="nt25_nt19" fromLane="1" toLane="0"/>
  <connection from="nt19_nt25" to="nt25_nt26" fromLane="0" toLane="0"/>
  <connection from="nt31_nt25" to="nt25_np20" fromLane="0" toLane="0"/>
  <connection from="np20_nt25" to="nt25_nt19" fromLane="0" toLane="0"/>
  <connection from="nt26_nt25" to="nt25_nt31" fromLane="0" toLane="0"/>
  <connection from="nt13_nt19" to="nt19_nt25" fromLane="0" toLane="0"/>
  <connection from="nt25_nt19" to="nt19_nt13" fromLane="0" toLane="0"/>
  <connection from="np21_nt19" to="nt19_nt20" fromLane="0" toLane="0"/>
  <connection from="nt20_nt19" to="nt19_np21" fromLane="0" toLane="0"/>
  <connection from="nt13_nt19" to="nt19_np21" fromLane="0" toLane="1"/>
  <connection from="nt25_nt19" to="nt19_nt20" fromLane="0" toLane="1"/>
  <connection from="np21_nt19" to="nt19_nt25" fromLane="1" toLane="0"/>
  <connection from="nt20_nt19" to="nt19_nt13" fromLane="1" toLane="0"/>
  <connection from="nt13_nt19" to="nt19_nt20" fromLane="0" toLane="0"/>
  <connection from="nt25_nt19" to="nt19_np21" fromLane="0" toLane="0"/>
  <connection from="np21_nt19" to="nt19_nt13" fromLane="0" toLane="0"/>
  <connection from="nt20_nt19" to="nt19_nt25" fromLane="0" toLane="0"/>
  <connection from="nt7_nt13" to="nt13_nt19" fromLane="0" toLane="0"/>
  <connection from="nt19_nt13" to="nt13_nt7" fromLane="0" toLane="0"/>
  <connection from="np22_nt13" to="nt13_nt14" fromLane="0" toLane="0"/>
  <connection from="nt14_nt13" to="nt13_np22" fromLane="0" toLane="0"/>
  <connection from="nt7_nt13" to="nt13_np22" fromLane="0" toLane="1"/>
  <connection from="nt19_nt13" to="nt13_nt14" fromLane="0" toLane="1"/>
  <connection from="np22_nt13" to="nt13_nt19" fromLane="1" toLane="0"/>
  <connection from="nt14_nt13" to="nt13_nt7" fromLane="1" toLane="0"/>
  <connection from="nt7_nt13" to="nt13_nt14" fromLane="0" toLane="0"/>
  <connection from="nt19_nt13" to="nt13_np22" fromLane="0" toLane="0"/>
  <connection from="np22_nt13" to="nt13_nt7" fromLane="0" toLane="0"/>
  <connection from="nt14_nt13" to="nt13_nt19" fromLane="0" toLane="0"/>
  <connection from="nt1_nt7" to="nt7_nt13" fromLane="0" toLane="0"/>
  <connection from="nt13_nt7" to="nt7_nt1" fromLane="0" toLane="0"/>
  <connection from="np23_nt7" to="nt7_nt8" fromLane="0" toLane="0"/>
  <connection from="nt8_nt7" to="nt7_np23" fromLane="0" toLane="0"/>
  <connection from="nt1_nt7" to="nt7_np23" fromLane="0" toLane="1"/>
  <connection from="nt13_nt7" to="nt7_nt8" fromLane="0" toLane="1"/>
  <connection from="np23_nt7" to="nt7_nt13" fromLane="1" toLane="0"/>
  <connection from="nt8_nt7" to="nt7_nt1" fromLane="1" toLane="0"/>
  <connection from="nt1_nt7" to="nt7_nt8" fromLane="0" toLane="0"/>
  <connection from="nt13_nt7" to="nt7_np23" fromLane="0" toLane="0"/>
  <connection from="np23_nt7" to="nt7_nt1" fromLane="0" toLane="0"/>
  <connection from="nt8_nt7" to="nt7_nt13" fromLane="0" toLane="0"/>
  <connection from="np1_nt1" to="nt1_nt7" fromLane="0" toLane="0"/>
  <connection from="nt7_nt1" to="nt1_np1" fromLane="0" toLane="0"/>
  <connection from="np24_nt1" to="nt1_nt2" fromLane="0" toLane="0"/>
  <connection from="nt2_nt1" to="nt1_np24" fromLane="0" toLane="0"/>
  <connection from="np1_nt1" to="nt1_np24" fromLane="0" toLane="1"/>
  <connection from="nt7_nt1" to="nt1_nt2" fromLane="0" toLane="1"/>
  <connection from="np24_nt1" to="nt1_nt7" fromLane="1" toLane="0"/>
  <connection from="nt2_nt1" to="nt1_np1" fromLane="1" toLane="0"/>
  <connection from="np1_nt1" to="nt1_nt2" fromLane="0" toLane="0"/>
  <connection from="nt7_nt1" to="nt1_np24" fromLane="0" toLane="0"/>
  <connection from="np24_nt1" to="nt1_np1" fromLane="0" toLane="0"/>
  <connection from="nt2_nt1" to="nt1_nt7" fromLane="0" toLane="0"/>
  <connection from="np2_nt2" to="nt2_nt8" fromLane="0" toLane="0"/>
  <connection from="nt8_nt2" to="nt2_np2" fromLane="0" toLane="0"/>
  <connection from="nt1_nt2" to="nt2_nt3" fromLane="0" toLane="0"/>
  <connection from="nt3_nt2" to="nt2_nt1" fromLane="0" toLane="0"/>
  <connection from="np2_nt2" to="nt2_nt1" fromLane="0" toLane="1"/>
  <connection from="nt8_nt2" to="nt2_nt3" fromLane="0" toLane="1"/>
  <connection from="nt1_nt2" to="nt2_nt8" fromLane="1" toLane="0"/>
  <connection from="nt3_nt2" to="nt2_np2" fromLane="1" toLane="0"/>
  <connection from="np2_nt2" to="nt2_nt3" fromLane="0" toLane="0"/>
  <connection from="nt8_nt2" to="nt2_nt1" fromLane="0" toLane="0"/>
  <connection from="nt1_nt2" to="nt2_np2" fromLane="0" toLane="0"/>
  <connection from="nt3_nt2" to="nt2_nt8" fromLane="0" toLane="0"/>
  <connection from="np3_nt3" to="nt3_nt9" fromLane="0" toLane="0"/>
  <connection from="nt9_nt3" to="nt3_np3" fromLane="0" toLane="0"/>
  <connection from="nt2_nt3" to="nt3_nt4" fromLane="0" toLane="0"/>
  <connection from="nt4_nt3" to="nt3_nt2" fromLane="0" toLane="0"/>
  <connection from="np3_nt3" to="nt3_nt2" fromLane="0" toLane="1"/>
  <connection from="nt9_nt3" to="nt3_nt4" fromLane="0" toLane="1"/>
  <connection from="nt2_nt3" to="nt3_nt9" fromLane="1" toLane="0"/>
  <connection from="nt4_nt3" to="nt3_np3" fromLane="1" toLane="0"/>
  <connection from="np3_nt3" to="nt3_nt4" fromLane="0" toLane="0"/>
  <connection from="nt9_nt3" to="nt3_nt2" fromLane="0" toLane="0"/>
  <connection from="nt2_nt3" to="nt3_np3" fromLane="0" toLane="0"/>
  <connection from="nt4_nt3" to="nt3_nt9" fromLane="0" toLane="0"/>
  <connection from="np4_nt4" to="nt4_nt10" fromLane="0" toLane="0"/>
  <connection from="nt10_nt4" to="nt4_np4" fromLane="0" toLane="0"/>
  <connection from="nt3_nt4" to="nt4_nt5" fromLane="0" toLane="0"/>
  <connection from="nt5_nt4" to="nt4_nt3" fromLane="0" toLane="0"/>
  <connection from="np4_nt4" to="nt4_nt3" fromLane="0" toLane="1"/>
  <connection from="nt10_nt4" to="nt4_nt5" fromLane="0" toLane="1"/>
  <connection from="nt3_nt4" to="nt4_nt10" fromLane="1" toLane="0"/>
  <connection from="nt5_nt4" to="nt4_np4" fromLane="1" toLane="0"/>
  <connection from="np4_nt4" to="nt4_nt5" fromLane="0" toLane="0"/>
  <connection from="nt10_nt4" to="nt4_nt3" fromLane="0" toLane="0"/>
  <connection from="nt3_nt4" to="nt4_np4" fromLane="0" toLane="0"/>
  <connection from="nt5_nt4" to="nt4_nt10" fromLane="0" toLane="0"/>
  <connection from="np5_nt5" to="nt5_nt11" fromLane="0" toLane="0"/>
  <connection from="nt11_nt5" to="nt5_np5" fromLane="0" toLane="0"/>
  <connection from="nt4_nt5" to="nt5_nt6" fromLane="0" toLane="0"/>
  <connection from="nt6_nt5" to="nt5_nt4" fromLane="0" toLane="0"/>
  <connection from="np5_nt5" to="nt5_nt4" fromLane="0" toLane="1"/>
  <connection from="nt11_nt5" to="nt5_nt6" fromLane="0" toLane="1"/>
  <connection from="nt4_nt5" to="nt5_nt11" fromLane="1" toLane="0"/>
  <connection from="nt6_nt5" to="nt5_np5" fromLane="1" toLane="0"/>
  <connection from="np5_nt5" to="nt5_nt6" fromLane="0" toLane="0"/>
  <connection from="nt11_nt5" to="nt5_nt4" fromLane="0" toLane="0"/>
  <connection from="nt4_nt5" to="nt5_np5" fromLane="0" toLane="0"/>
  <connection from="nt6_nt5" to="nt5_nt11" fromLane="0" toLane="0"/>
  <connection from="nt29_nt35" to="nt35_np14" fromLane="0" toLane="0"/>
  <connection from="np14_nt35" to="nt35_nt29" fromLane="0" toLane="0"/>
  <connection from="nt34_nt35" to="nt35_nt36" fromLane="0" toLane="0"/>
  <connection from="nt36_nt35" to="nt35_nt34" fromLane="0" toLane="0"/>
  <connection from="nt29_nt35" to="nt35_nt34" fromLane="0" toLane="1"/>
  <connection from="np14_nt35" to="nt35_nt36" fromLane="0" toLane="1"/>
  <connection from="nt34_nt35" to="nt35_np14" fromLane="1" toLane="0"/>
  <connection from="nt36_nt35" to="nt35_nt29" fromLane="1" toLane="0"/>
  <connection from="nt29_nt35" to="nt35_nt36" fromLane="0" toLane="0"/>
  <connection from="np14_nt35" to="nt35_nt34" fromLane="0" toLane="0"/>
  <connection from="nt34_nt35" to="nt35_nt29" fromLane="0" toLane="0"/>
  <connection from="nt36_nt35" to="nt35_np14" fromLane="0" toLane="0"/>
  <connection from="nt28_nt34" to="nt34_np15" fromLane="0" toLane="0"/>
  <connection from="np15_nt34" to="nt34_nt28" fromLane="0" toLane="0"/>
  <connection from="nt33_nt34" to="nt34_nt35" fromLane="0" toLane="0"/>
  <connection from="nt35_nt34" to="nt34_nt33" fromLane="0" toLane="0"/>
  <connection from="nt28_nt34" to="nt34_nt33" fromLane="0" toLane="1"/>
  <connection from="np15_nt34" to="nt34_nt35" fromLane="0" toLane="1"/>
  <connection from="nt33_nt34" to="nt34_np15" fromLane="1" toLane="0"/>
  <connection from="nt35_nt34" to="nt34_nt28" fromLane="1" toLane="0"/>
  <connection from="nt28_nt34" to="nt34_nt35" fromLane="0" toLane="0"/>
  <connection from="np15_nt34" to="nt34_nt33" fromLane="0" toLane="0"/>
  <connection from="nt33_nt34" to="nt34_nt28" fromLane="0" toLane="0"/>
  <connection from="nt35_nt34" to="nt34_np15" fromLane="0" toLane="0"/>
  <connection from="nt27_nt33" to="nt33_np16" fromLane="0" toLane="0"/>
  <connection from="np16_nt33" to="nt33_nt27" fromLane="0" toLane="0"/>
  <connection from="nt32_nt33" to="nt33_nt34" fromLane="0" toLane="0"/>
  <connection from="nt34_nt33" to="nt33_nt32" fromLane="0" toLane="0"/>
  <connection from="nt27_nt33" to="nt33_nt32" fromLane="0" toLane="1"/>
  <connection from="np16_nt33" to="nt33_nt34" fromLane="0" toLane="1"/>
  <connection from="nt32_nt33" to="nt33_np16" fromLane="1" toLane="0"/>
  <connection from="nt34_nt33" to="nt33_nt27" fromLane="1" toLane="0"/>
  <connection from="nt27_nt33" to="nt33_nt34" fromLane="0" toLane="0"/>
  <connection from="np16_nt33" to="nt33_nt32" fromLane="0" toLane="0"/>
  <connection from="nt32_nt33" to="nt33_nt27" fromLane="0" toLane="0"/>
  <connection from="nt34_nt33" to="nt33_np16" fromLane="0" toLane="0"/>
  <connection from="nt26_nt32" to="nt32_np17" fromLane="0" toLane="0"/>
  <connection from="np17_nt32" to="nt32_nt26" fromLane="0" toLane="0"/>
  <connection from="nt31_nt32" to="nt32_nt33" fromLane="0" toLane="0"/>
  <connection from="nt33_nt32" to="nt32_nt31" fromLane="0" toLane="0"/>
  <connection from="nt26_nt32" to="nt32_nt31" fromLane="0" toLane="1"/>
  <connection from="np17_nt32" to="nt32_nt33" fromLane="0" toLane="1"/>
  <connection from="nt31_nt32" to="nt32_np17" fromLane="1" toLane="0"/>
  <connection from="nt33_nt32" to="nt32_nt26" fromLane="1" toLane="0"/>
  <connection from="nt26_nt32" to="nt32_nt33" fromLane="0" toLane="0"/>
  <connection from="np17_nt32" to="nt32_nt31" fromLane="0" toLane="0"/>
  <connection from="nt31_nt32" to="nt32_nt26" fromLane="0" toLane="0"/>
  <connection from="nt33_nt32" to="nt32_np17" fromLane="0" toLane="0"/>
  <connection from="nt2_nt8" to="nt8_nt14" fromLane="0" toLane="0"/>
  <connection from="nt14_nt8" to="nt8_nt2" fromLane="0" toLane="0"/>
  <connection from="nt7_nt8" to="nt8_nt9" fromLane="0" toLane="0"/>
  <connection from="nt9_nt8" to="nt8_nt7" fromLane="0" toLane="0"/>
  <connection from="nt2_nt8" to="nt8_nt7" fromLane="0" toLane="1"/>
  <connection from="nt14_nt8" to="nt8_nt9" fromLane="0" toLane="1"/>
  <connection from="nt7_nt8" to="nt8_nt14" fromLane="1" toLane="0"/>
  <connection from="nt9_nt8" to="nt8_nt2" fromLane="1" toLane="0"/>
  <connection from="nt2_nt8" to="nt8_nt9" fromLane="0" toLane="0"/>
  <connection from="nt14_nt8" to="nt8_nt7" fromLane="0" toLane="0"/>
  <connection from="nt7_nt8" to="nt8_nt2" fromLane="0" toLane="0"/>
  <connection from="nt9_nt8" to="nt8_nt14" fromLane="0" toLane="0"/>
  <connection from="nt3_nt9" to="nt9_nt15" fromLane="0" toLane="0"/>
  <connection from="nt15_nt9" to="nt9_nt3" fromLane="0" toLane="0"/>
  <connection from="nt8_nt9" to="nt9_nt10" fromLane="0" toLane="0"/>
  <connection from="nt10_nt9" to="nt9_nt8" fromLane="0" toLane="0"/>
  <connection from="nt3_nt9" to="nt9_nt8" fromLane="0" toLane="1"/>
  <connection from="nt15_nt9" to="nt9_nt10" fromLane="0" toLane="1"/>
  <connection from="nt8_nt9" to="nt9_nt15" fromLane="1" toLane="0"/>
  <connection from="nt10_nt9" to="nt9_nt3" fromLane="1" toLane="0"/>
  <connection from="nt3_nt9" to="nt9_nt10" fromLane="0" toLane="0"/>
  <connection from="nt15_nt9" to="nt9_nt8" fromLane="0" toLane="0"/>
  <connection from="nt8_nt9" to="nt9_nt3" fromLane="0" toLane="0"/>
  <connection from="nt10_nt9" to="nt9_nt15" fromLane="0" toLane="0"/>
  <connection from="nt4_nt10" to="nt10_nt16" fromLane="0" toLane="0"/>
  <connection from="nt16_nt10" to="nt10_nt4" fromLane="0" toLane="0"/>
  <connection from="nt9_nt10" to="nt10_nt11" fromLane="0" toLane="0"/>
  <connection from="nt11_nt10" to="nt10_nt9" fromLane="0" toLane="0"/>
  <connection from="nt4_nt10" to="nt10_nt9" fromLane="0" toLane="1"/>
  <connection from="nt16_nt10" to="nt10_nt11" fromLane="0" toLane="1"/>
  <connection from="nt9_nt10" to="nt10_nt16" fromLane="1" toLane="0"/>
  <connection from="nt11_nt10" to="nt10_nt4" fromLane="1" toLane="0"/>
  <connection from="nt4_nt10" to="nt10_nt11" fromLane="0" toLane="0"/>
  <connection from="nt16_nt10" to="nt10_nt9" fromLane="0" toLane="0"/>
  <connection from="nt9_nt10" to="nt10_nt4" fromLane="0" toLane="0"/>
  <connection from="nt11_nt10" to="nt10_nt16" fromLane="0" toLane="0"/>
  <connection from="nt5_nt11" to="nt11_nt17" fromLane="0" toLane="0"/>
  <connection from="nt17_nt11" to="nt11_nt5" fromLane="0" toLane="0"/>
  <connection from="nt10_nt11" to="nt11_nt12" fromLane="0" toLane="0"/>
  <connection from="nt12_nt11" to="nt11_nt10" fromLane="0" toLane="0"/>
  <connection from="nt5_nt11" to="nt11_nt10" fromLane="0" toLane="1"/>
  <connection from="nt17_nt11" to="nt11_nt12" fromLane="0" toLane="1"/>
  <connection from="nt10_nt11" to="nt11_nt17" fromLane="1" toLane="0"/>
  <connection from="nt12_nt11" to="nt11_nt5" fromLane="1" toLane="0"/>
  <connection from="nt5_nt11" to="nt11_nt12" fromLane="0" toLane="0"/>
  <connection from="nt17_nt11" to="nt11_nt10" fromLane="0" toLane="0"/>
  <connection from="nt10_nt11" to="nt11_nt5" fromLane="0" toLane="0"/>
  <connection from="nt12_nt11" to="nt11_nt17" fromLane="0" toLane="0"/>
  <connection from="nt8_nt14" to="nt14_nt20" fromLane="0" toLane="0"/>
  <connection from="nt20_nt14" to="nt14_nt8" fromLane="0" toLane="0"/>
  <connection from="nt13_nt14" to="nt14_nt15" fromLane="0" toLane="0"/>
  <connection from="nt15_nt14" to="nt14_nt13" fromLane="0" toLane="0"/>
  <connection from="nt8_nt14" to="nt14_nt13" fromLane="0" toLane="1"/>
  <connection from="nt20_nt14" to="nt14_nt15" fromLane="0" toLane="1"/>
  <connection from="nt13_nt14" to="nt14_nt20" fromLane="1" toLane="0"/>
  <connection from="nt15_nt14" to="nt14_nt8" fromLane="1" toLane="0"/>
  <connection from="nt8_nt14" to="nt14_nt15" fromLane="0" toLane="0"/>
  <connection from="nt20_nt14" to="nt14_nt13" fromLane="0" toLane="0"/>
  <connection from="nt13_nt14" to="nt14_nt8" fromLane="0" toLane="0"/>
  <connection from="nt15_nt14" to="nt14_nt20" fromLane="0" toLane="0"/>
  <connection from="nt9_nt15" to="nt15_nt21" fromLane="0" toLane="0"/>
  <connection from="nt21_nt15" to="nt15_nt9" fromLane="0" toLane="0"/>
  <connection from="nt14_nt15" to="nt15_nt16" fromLane="0" toLane="0"/>
  <connection from="nt16_nt15" to="nt15_nt14" fromLane="0" toLane="0"/>
  <connection from="nt9_nt15" to="nt15_nt14" fromLane="0" toLane="1"/>
  <connection from="nt21_nt15" to="nt15_nt16" fromLane="0" toLane="1"/>
  <connection from="nt14_nt15" to="nt15_nt21" fromLane="1" toLane="0"/>
  <connection from="nt16_nt15" to="nt15_nt9" fromLane="1" toLane="0"/>
  <connection from="nt9_nt15" to="nt15_nt16" fromLane="0" toLane="0"/>
  <connection from="nt21_nt15" to="nt15_nt14" fromLane="0" toLane="0"/>
  <connection from="nt14_nt15" to="nt15_nt9" fromLane="0" toLane="0"/>
  <connection from="nt16_nt15" to="nt15_nt21" fromLane="0" toLane="0"/>
  <connection from="nt10_nt16" to="nt16_nt22" fromLane="0" toLane="0"/>
  <connection from="nt22_nt16" to="nt16_nt10" fromLane="0" toLane="0"/>
  <connection from="nt15_nt16" to="nt16_nt17" fromLane="0" toLane="0"/>
  <connection from="nt17_nt16" to="nt16_nt15" fromLane="0" toLane="0"/>
  <connection from="nt10_nt16" to="nt16_nt15" fromLane="0" toLane="1"/>
  <connection from="nt22_nt16" to="nt16_nt17" fromLane="0" toLane="1"/>
  <connection from="nt15_nt16" to="nt16_nt22" fromLane="1" toLane="0"/>
  <connection from="nt17_nt16" to="nt16_nt10" fromLane="1" toLane="0"/>
  <connection from="nt10_nt16" to="nt16_nt17" fromLane="0" toLane="0"/>
  <connection from="nt22_nt16" to="nt16_nt15" fromLane="0" toLane="0"/>
  <connection from="nt15_nt16" to="nt16_nt10" fromLane="0" toLane="0"/>
  <connection from="nt17_nt16" to="nt16_nt22" fromLane="0" toLane="0"/>
  <connection from="nt11_nt17" to="nt17_nt23" fromLane="0" toLane="0"/>
  <connection from="nt23_nt17" to="nt17_nt11" fromLane="0" toLane="0"/>
  <connection from="nt16_nt17" to="nt17_nt18" fromLane="0" toLane="0"/>
  <connection from="nt18_nt17" to="nt17_nt16" fromLane="0" toLane="0"/>
  <connection from="nt11_nt17" to="nt17_nt16" fromLane="0" toLane="1"/>
  <connection from="nt23_nt17" to="nt17_nt18" fromLane="0" toLane="1"/>
  <connection from="nt16_nt17" to="nt17_nt23" fromLane="1" toLane="0"/>
  <connection from="nt18_nt17" to="nt17_nt11" fromLane="1" toLane="0"/>
  <connection from="nt11_nt17" to="nt17_nt18" fromLane="0" toLane="0"/>
  <connection from="nt23_nt17" to="nt17_nt16" fromLane="0" toLane="0"/>
  <connection from="nt16_nt17" to="nt17_nt11" fromLane="0" toLane="0"/>
  <connection from="nt18_nt17" to="nt17_nt23" fromLane="0" toLane="0"/>
  <connection from="nt14_nt20" to="nt20_nt26" fromLane="0" toLane="0"/>
  <connection from="nt26_nt20" to="nt20_nt14" fromLane="0" toLane="0"/>
  <connection from="nt19_nt20" to="nt20_nt21" fromLane="0" toLane="0"/>
  <connection from="nt21_nt20" to="nt20_nt19" fromLane="0" toLane="0"/>
  <connection from="nt14_nt20" to="nt20_nt19" fromLane="0" toLane="1"/>
  <connection from="nt26_nt20" to="nt20_nt21" fromLane="0" toLane="1"/>
  <connection from="nt19_nt20" to="nt20_nt26" fromLane="1" toLane="0"/>
  <connection from="nt21_nt20" to="nt20_nt14" fromLane="1" toLane="0"/>
  <connection from="nt14_nt20" to="nt20_nt21" fromLane="0" toLane="0"/>
  <connection from="nt26_nt20" to="nt20_nt19" fromLane="0" toLane="0"/>
  <connection from="nt19_nt20" to="nt20_nt14" fromLane="0" toLane="0"/>
  <connection from="nt21_nt20" to="nt20_nt26" fromLane="0" toLane="0"/>
  <connection from="nt15_nt21" to="nt21_nt27" fromLane="0" toLane="0"/>
  <connection from="nt27_nt21" to="nt21_nt15" fromLane="0" toLane="0"/>
  <connection from="nt20_nt21" to="nt21_nt22" fromLane="0" toLane="0"/>
  <connection from="nt22_nt21" to="nt21_nt20" fromLane="0" toLane="0"/>
  <connection from="nt15_nt21" to="nt21_nt20" fromLane="0" toLane="1"/>
  <connection from="nt27_nt21" to="nt21_nt22" fromLane="0" toLane="1"/>
  <connection from="nt20_nt21" to="nt21_nt27" fromLane="1" toLane="0"/>
  <connection from="nt22_nt21" to="nt21_nt15" fromLane="1" toLane="0"/>
  <connection from="nt15_nt21" to="nt21_nt22" fromLane="0" toLane="0"/>
  <connection from="nt27_nt21" to="nt21_nt20" fromLane="0" toLane="0"/>
  <connection from="nt20_nt21" to="nt21_nt15" fromLane="0" toLane="0"/>
  <connection from="nt22_nt21" to="nt21_nt27" fromLane="0" toLane="0"/>
  <connection from="nt16_nt22" to="nt22_nt28" fromLane="0" toLane="0"/>
  <connection from="nt28_nt22" to="nt22_nt16" fromLane="0" toLane="0"/>
  <connection from="nt21_nt22" to="nt22_nt23" fromLane="0" toLane="0"/>
  <connection from="nt23_nt22" to="nt22_nt21" fromLane="0" toLane="0"/>
  <connection from="nt16_nt22" to="nt22_nt21" fromLane="0" toLane="1"/>
  <connection from="nt28_nt22" to="nt22_nt23" fromLane="0" toLane="1"/>
  <connection from="nt21_nt22" to="nt22_nt28" fromLane="1" toLane="0"/>
  <connection from="nt23_nt22" to="nt22_nt16" fromLane="1" toLane="0"/>
  <connection from="nt16_nt22" to="nt22_nt23" fromLane="0" toLane="0"/>
  <connection from="nt28_nt22" to="nt22_nt21" fromLane="0" toLane="0"/>
  <connection from="nt21_nt22" to="nt22_nt16" fromLane="0" toLane="0"/>
  <connection from="nt23_nt22" to="nt22_nt28" fromLane="0" toLane="0"/>
  <connection from="nt17_nt23" to="nt23_nt29" fromLane="0" toLane="0"/>
  <connection from="nt29_nt23" to="nt23_nt17" fromLane="0" toLane="0"/>
  <connection from="nt22_nt23" to="nt23_nt24" fromLane="0" toLane="0"/>
  <connection from="nt24_nt23" to="nt23_nt22" fromLane="0" toLane="0"/>
  <connection from="nt17_nt23" to="nt23_nt22" fromLane="0" toLane="1"/>
  <connection from="nt29_nt23" to="nt23_nt24" fromLane="0" toLane="1"/>
  <connection from="nt22_nt23" to="nt23_nt29" fromLane="1" toLane="0"/>
  <connection from="nt24_nt23" to="nt23_nt17" fromLane="1" toLane="0"/>
  <connection from="nt17_nt23" to="nt23_nt24" fromLane="0" toLane="0"/>
  <connection from="nt29_nt23" to="nt23_nt22" fromLane="0" toLane="0"/>
  <connection from="nt22_nt23" to="nt23_nt17" fromLane="0" toLane="0"/>
  <connection from="nt24_nt23" to="nt23_nt29" fromLane="0" toLane="0"/>
  <connection from="nt20_nt26" to="nt26_nt32" fromLane="0" toLane="0"/>
  <connection from="nt32_nt26" to="nt26_nt20" fromLane="0" toLane="0"/>
  <connection from="nt25_nt26" to="nt26_nt27" fromLane="0" toLane="0"/>
  <connection from="nt27_nt26" to="nt26_nt25" fromLane="0" toLane="0"/>
  <connection from="nt20_nt26" to="nt26_nt25" fromLane="0" toLane="1"/>
  <connection from="nt32_nt26" to="nt26_nt27" fromLane="0" toLane="1"/>
  <connection from="nt25_nt26" to="nt26_nt32" fromLane="1" toLane="0"/>
  <connection from="nt27_nt26" to="nt26_nt20" fromLane="1" toLane="0"/>
  <connection from="nt20_nt26" to="nt26_nt27" fromLane="0" toLane="0"/>
  <connection from="nt32_nt26" to="nt26_nt25" fromLane="0" toLane="0"/>
  <connection from="nt25_nt26" to="nt26_nt20" fromLane="0" toLane="0"/>
  <connection from="nt27_nt26" to="nt26_nt32" fromLane="0" toLane="0"/>
  <connection from="nt21_nt27" to="nt27_nt33" fromLane="0" toLane="0"/>
  <connection from="nt33_nt27" to="nt27_nt21" fromLane="0" toLane="0"/>
  <connection from="nt26_nt27" to="nt27_nt28" fromLane="0" toLane="0"/>
  <connection from="nt28_nt27" to="nt27_nt26" fromLane="0" toLane="0"/>
  <connection from="nt21_nt27" to="nt27_nt26" fromLane="0" toLane="1"/>
  <connection from="nt33_nt27" to="nt27_nt28" fromLane="0" toLane="1"/>
  <connection from="nt26_nt27" to="nt27_nt33" fromLane="1" toLane="0"/>
  <connection from="nt28_nt27" to="nt27_nt21" fromLane="1" toLane="0"/>
  <connection from="nt21_nt27" to="nt27_nt28" fromLane="0" toLane="0"/>
  <connection from="nt33_nt27" to="nt27_nt26" fromLane="0" toLane="0"/>
  <connection from="nt26_nt27" to="nt27_nt21" fromLane="0" toLane="0"/>
  <connection from="nt28_nt27" to="nt27_nt33" fromLane="0" toLane="0"/>
  <connection from="nt22_nt28" to="nt28_nt34" fromLane="0" toLane="0"/>
  <connection from="nt34_nt28" to="nt28_nt22" fromLane="0" toLane="0"/>
  <connection from="nt27_nt28" to="nt28_nt29" fromLane="0" toLane="0"/>
  <connection from="nt29_nt28" to="nt28_nt27" fromLane="0" toLane="0"/>
  <connection from="nt22_nt28" to="nt28_nt27" fromLane="0" toLane="1"/>
  <connection from="nt34_nt28" to="nt28_nt29" fromLane="0" toLane="1"/>
  <connection from="nt27_nt28" to="nt28_nt34" fromLane="1" toLane="0"/>
  <connection from="nt29_nt28" to="nt28_nt22" fromLane="1" toLane="0"/>