<nodes>
  <node id="nt1" x="0.00" y="0.00" type="traffic_light"/>
  <node id="nt2" x="200.00" y="0.00" type="traffic_light"/>
  <node id="nt3" x="400.00" y="0.00" type="traffic_light"/>
  <node id="nt4" x="600.00" y="0.00" type="traffic_light"/>
  <node id="nt5" x="800.00" y="0.00" type="traffic_light"/>
  <node id="nt6" x="1000.00" y="0.00" type="traffic_light"/>
  <node id="nt7" x="0.00" y="200.00" type="traffic_light"/>
  <node id="nt8" x="200.00" y="200.00" type="traffic_light"/>
  <node id="nt9" x="400.00" y="200.00" type="traffic_light"/>
  <node id="nt10" x="600.00" y="200.00" type="traffic_light"/>
  <node id="nt11" x="800.00" y="200.00" type="traffic_light"/>
  <node id="nt12" x="1000.00" y="200.00" type="traffic_light"/>
  <node id="nt13" x="0.00" y="400.00" type="traffic_light"/>
  <node id="nt14" x="200.00" y="400.00" type="traffic_light"/>
  <node id="nt15" x="400.00" y="400.00" type="traffic_light"/>
  <node id="nt16" x="600.00" y="400.00" type="traffic_light"/>
  <node id="nt17" x="800.00" y="400.00" type="traffic_light"/>
  <node id="nt18" x="1000.00" y="400.00" type="traffic_light"/>
  <node id="nt19" x="0.00" y="600.00" type="traffic_light"/>
  <node id="nt20" x="200.00" y="600.00" type="traffic_light"/>
  <node id="nt21" x="400.00" y="600.00" type="traffic_light"/>
  <node id="nt22" x="600.00" y="600.00" type="traffic_light"/>
  <node id="nt23" x="800.00" y="600.00" type="traffic_light"/>
  <node id="nt24" x="1000.00" y="600.00" type="traffic_light"/>
  <node id="nt25" x="0.00" y="800.00" type="traffic_light"/>
  <node id="nt26" x="200.00" y="800.00" type="traffic_light"/>
  <node id="nt27" x="400.00" y="800.00" type="traffic_light"/>
  <node id="nt28" x="600.00" y="800.00" type="traffic_light"/>
  <node id="nt29" x="800.00" y="800.00" type="traffic_light"/>
  <node id="nt30" x="1000.00" y="800.00" type="traffic_light"/>
  <node id="nt31" x="0.00" y="1000.00" type="traffic_light"/>
  <node id="nt32" x="200.00" y="1000.00" type="traffic_light"/>
  <node id="nt33" x="400.00" y="1000.00" type="traffic_light"/>
  <node id="nt34" x="600.00" y="1000.00" type="traffic_light"/>
  <node id="nt35" x="800.00" y="1000.00" type="traffic_light"/>
  <node id="nt36" x="1000.00" y="1000.00" type="traffic_light"/>
  <node id="np1" x="0.00" y="-75.00" type="priority"/>
  <node id="np2" x="200.00" y="-75.00" type="priority"/>
  <node id="np3" x="400.00" y="-75.00" type="priority"/>
  <node id="np4" x="600.00" y="-75.00" type="priority"/>
  <node id="np5" x="800.00" y="-75.00" type="priority"/>
  <node id="np6" x="1000.00" y="-75.00" type="priority"/>
  <node id="np7" x="1075.00" y="0.00" type="priority"/>
  <node id="np8" x="1075.00" y="200.00" type="priority"/>
  <node id="np9" x="1075.00" y="400.00" type="priority"/>
  <node id="np10" x="1075.00" y="600.00" type="priority"/>
  <node id="np11" x="1075.00" y="800.00" type="priority"/>
  <node id="np12" x="1075.00" y="1000.00" type="priority"/>
  <node id="np13" x="1000.00" y="1075.00" type="priority"/>
  <node id="np14" x="800.00" y="1075.00" type="priority"/>
  <node id="np15" x="600.00" y="1075.00" type="priority"/>
  <node id="np16" x="400.00" y="1075.00" type="priority"/>
  <node id="np17" x="200.00" y="1075.00" type="priority"/>
  <node id="np18" x="0.00" y="1075.00" type="priority"/>
  <node id="np19" x="-75.00" y="1000.00" type="priority"/>
  <node id="np20" x="-75.00" y="800.00" type="priority"/>
  <node id="np21" x="-75.00" y="600.00" type="priority"/>
  <node id="np22" x="-75.00" y="400.00" type="priority"/>
  <node id="np23" x="-75.00" y="200.00" type="priority"/>
  <node id="np24" x="-75.00" y="0.00" type="priority"/>
</nodes>
