<edges>
  <edge id="nt6_np7" from="nt6" to="np7" type="a"/>
  <edge id="np7_nt6" from="np7" to="nt6" type="a"/>
  <edge id="nt12_np8" from="nt12" to="np8" type="a"/>
  <edge id="np8_nt12" from="np8" to="nt12" type="a"/>
  <edge id="nt18_np9" from="nt18" to="np9" type="a"/>
  <edge id="np9_nt18" from="np9" to="nt18" type="a"/>
  <edge id="nt24_np10" from="nt24" to="np10" type="a"/>
  <edge id="np10_nt24" from="np10" to="nt24" type="a"/>
  <edge id="nt30_np11" from="nt30" to="np11" type="a"/>
  <edge id="np11_nt30" from="np11" to="nt30" type="a"/>
  <edge id="nt36_np12" from="nt36" to="np12" type="a"/>
  <edge id="np12_nt36" from="np12" to="nt36" type="a"/>
  <edge id="nt31_np19" from="nt31" to="np19" type="a"/>
  <edge id="np19_nt31" from="np19" to="nt31" type="a"/>
  <edge id="nt25_np20" from="nt25" to="np20" type="a"/>
  <edge id="np20_nt25" from="np20" to="nt25" type="a"/>
  <edge id="nt19_np21" from="nt19" to="np21" type="a"/>
  <edge id="np21_nt19" from="np21" to="nt19" type="a"/>
  <edge id="nt13_np22" from="nt13" to="np22" type="a"/>
  <edge id="np22_nt13" from="np22" to="nt13" type="a"/>
  <edge id="nt7_np23" from="nt7" to="np23" type="a"/>
  <edge id="np23_nt7" from="np23" to="nt7" type="a"/>
  <edge id="nt1_np24" from="nt1" to="np24" type="a"/>
  <edge id="np24_nt1" from="np24" to="nt1" type="a"/>
  <edge id="nt1_np1" from="nt1" to="np1" type="b"/>
  <edge id="np1_nt1" from="np1" to="nt1" type="b"/>
  <edge id="nt2_np2" from="nt2" to="np2" type="b"/>
  <edge id="np2_nt2" from="np2" to="nt2" type="b"/>
  <edge id="nt3_np3" from="nt3" to="np3" type="b"/>
  <edge id="np3_nt3" from="np3" to="nt3" type="b"/>
  <edge id="nt4_np4" from="nt4" to="np4" type="b"/>
  <edge id="np4_nt4" from="np4" to="nt4" type="b"/>
  <edge id="nt5_np5" from="nt5" to="np5" type="b"/>
  <edge id="np5_nt5" from="np5" to="nt5" type="b"/>
  <edge id="nt6_np6" from="nt6" to="np6" type="b"/>
  <edge id="np6_nt6" from="np6" to="nt6" type="b"/>
  <edge id="nt36_np13" from="nt36" to="np13" type="b"/>
  <edge id="np13_nt36" from="np13" to="nt36" type="b"/>
  <edge id="nt35_np14" from="nt35" to="np14" type="b"/>
  <edge id="np14_nt35" from="np14" to="nt35" type="b"/>
  <edge id="nt34_np15" from="nt34" to="np15" type="b"/>
  <edge id="np15_nt34" from="np15" to="nt34" type="b"/>
  <edge id="nt33_np16" from="nt33" to="np16" type="b"/>
  <edge id="np16_nt33" from="np16" to="nt33" type="b"/>
  <edge id="nt32_np17" from="nt32" to="np17" type="b"/>
  <edge id="np17_nt32" from="np17" to="nt32" type="b"/>
  <edge id="nt31_np18" from="nt31" to="np18" type="b"/>
  <edge id="np18_nt31" from="np18" to="nt31" type="b"/>
  <edge id="nt1_nt2" from="nt1" to="nt2" type="a"/>
  <edge id="nt2_nt1" from="nt2" to="nt1" type="a"/>
  <edge id="nt2_nt3" from="nt2" to="nt3" type="a"/>
  <edge id="nt3_nt2" from="nt3" to="nt2" type="a"/>
  <edge id="nt3_nt4" from="nt3" to="nt4" type="a"/>
  <edge id="nt4_nt3" from="nt4" to="nt3" type="a"/>
  <edge id="nt4_nt5" from="nt4" to="nt5" type="a"/>
  <edge id="nt5_nt4" from="nt5" to="nt4" type="a"/>
  <edge id="nt5_nt6" from="nt5" to="nt6" type="a"/>
  <edge id="nt6_nt5" from="nt6" to="nt5" type="a"/>
  <edge id="nt7_nt8" from="nt7" to="nt8" type="a"/>
  <edge id="nt8_nt7" from="nt8" to="nt7" type="a"/>
  <edge id="nt8_nt9" from="nt8" to="nt9" type="a"/>
  <edge id="nt9_nt8" from="nt9" to="nt8" type="a"/>
  <edge id="nt9_nt10" from="nt9" to="nt10" type="a"/>
  <edge id="nt10_nt9" from="nt10" to="nt9" type="a"/>
  <edge id="nt10_nt11" from="nt10" to="nt11" type="a"/>
  <edge id="nt11_nt10" from="nt11" to="nt10" type="a"/>
  <edge id="nt11_nt12" from="nt11" to="nt12" type="a"/>
  <edge id="nt12_nt11" from="nt12" to="nt11" type="a"/>
  <edge id="nt13_nt14" from="nt13" to="nt14" type="a"/>
  <edge id="nt14_nt13" from="nt14" to="nt13" type="a"/>
  <edge id="nt14_nt15" from="nt14" to="nt15" type="a"/>
  <edge id="nt15_nt14" from="nt15" to="nt14" type="a"/>
  <edge id="nt15_nt16" from="nt15" to="nt16" type="a"/>
  <edge id="nt16_nt15" from="nt16" to="nt15" type="a"/>
  <edge id="nt16_nt17" from="nt16" to="nt17" type="a"/>
  <edge id="nt17_nt16" from="nt17" to="nt16" type="a"/>
  <edge id="nt17_nt18" from="nt17" to="nt18" type="a"/>
  <edge id="nt18_nt17" from="nt18" to="nt17" type="a"/>
  <edge id="nt19_nt20" from="nt19" to="nt20" type="a"/>
  <edge id="nt20_nt19" from="nt20" to="nt19" type="a"/>
  <edge id="nt20_nt21" from="nt20" to="nt21" type="a"/>
  <edge id="nt21_nt20" from="nt21" to="nt20" type="a"/>
  <edge id="nt21_nt22" from="nt21" to="nt22" type="a"/>
  <edge id="nt22_nt21" from="nt22" to="nt21" type="a"/>
  <edge id="nt22_nt23" from="nt22" to="nt23" type="a"/>
  <edge id="nt23_nt22" from="nt23" to="nt22" type="a"/>
  <edge id="nt23_nt24" from="nt23" to="nt24" type="a"/>
  <edge id="nt24_nt23" from="nt24" to="nt23" type="a"/>
  <edge id="nt25_nt26" from="nt25" to="nt26" type="a"/>
  <edge id="nt26_nt25" from="nt26" to="nt25" type="a"/>
  <edge id="nt26_nt27" from="nt26" to="nt27" type="a"/>
  <edge id="nt27_nt26" from="nt27" to="nt26" type="a"/>
  <edge id="nt27_nt28" from="nt27" to="nt28" type="a"/>
  <edge id="nt28_nt27" from="nt28" to="nt27" type="a"/>
  <edge id="nt28_nt29" from="nt28" to="nt29" type="a"/>
  <edge id="nt29_nt28" from="nt29" to="nt28" type="a"/>
  <edge id="nt29_nt30" from="nt29" to="nt30" type="a"/>
  <edge id="nt30_nt29" from="nt30" to="nt29" type="a"/>
  <edge id="nt31_nt32" from="nt31" to="nt32" type="a"/>
  <edge id="nt32_nt31" from="nt32" to="nt31" type="a"/>
  <edge id="nt32_nt33" from="nt32" to="nt33" type="a"/>
  <edge id="nt33_nt32" from="nt33" to="nt32" type="a"/>
  <edge id="nt33_nt34" from="nt33" to="nt34" type="a"/>
  <edge id="nt34_nt33" from="nt34" to="nt33" type="a"/>
  <edge id="nt34_nt35" from="nt34" to="nt35" type="a"/>
  <edge id="nt35_nt34" from="nt35" to="nt34" type="a"/>
  <edge id="nt35_nt36" from="nt35" to="nt36" type="a"/>
  <edge id="nt36_nt35" from="nt36" to="nt35" type="a"/>
  <edge id="nt1_nt7" from="nt1" to="nt7" type="b"/>
  <edge id="nt7_nt1" from="nt7" to="nt1" type="b"/>
  <edge id="nt7_nt13" from="nt7" to="nt13" type="b"/>
  <edge id="nt13_nt7" from="nt13" to="nt7" type="b"/>
  <edge id="nt13_nt19" from="nt13" to="nt19" type="b"/>
  <edge id="nt19_nt13" from="nt19" to="nt13" type="b"/>
  <edge id="nt19_nt25" from="nt19" to="nt25" type="b"/>
  <edge id="nt25_nt19" from="nt25" to="nt19" type="b"/>
  <edge id="nt25_nt31" from="nt25" to="nt31" type="b"/>
  <edge id="nt31_nt25" from="nt31" to="nt25" type="b"/>
  <edge id="nt2_nt8" from="nt2" to="nt8" type="b"/>
  <edge id="nt8_nt2" from="nt8" to="nt2" type="b"/>
  <edge id="nt8_nt14" from="nt8" to="nt14" type="b"/>
  <edge id="nt14_nt8" from="nt14" to="nt8" type="b"/>
  <edge id="nt14_nt20" from="nt14" to="nt20" type="b"/>
  <edge id="nt20_nt14" from="nt20" to="nt14" type="b"/>
  <edge id="nt20_nt26" from="nt20" to="nt26" type="b"/>
  <edge id="nt26_nt20" from="nt26" to="nt20" type="b"/>
  <edge id="nt26_nt32" from="nt26" to="nt32" type="b"/>
  <edge id="nt32_nt26" from="nt32" to="nt26" type="b"/>
  <edge id="nt3_nt9" from="nt3" to="nt9" type="b"/>
  <edge id="nt9_nt3" from="nt9" to="nt3" type="b"/>
  <edge id="nt9_nt15" from="nt9" to="nt15" type="b"/>
  <edge id="nt15_nt9" from="nt15" to="nt9" type="b"/>
  <edge id="nt15_nt21" from="nt15" to="nt21" type="b"/>
  <edge id="nt21_nt15" from="nt21" to="nt15" type="b"/>
  <edge id="nt21_nt27" from="nt21" to="nt27" type="b"/>
  <edge id="nt27_nt21" from="nt27" to="nt21" type="b"/>
  <edge id="nt27_nt33" from="nt27" to="nt33" type="b"/>
  <edge id="nt33_nt27" from="nt33" to="nt27" type="b"/>
  <edge id="nt4_nt10" from="nt4" to="nt10" type="b"/>
  <edge id="nt10_nt4" from="nt10" to="nt4" type="b"/>
  <edge id="nt10_nt16" from="nt10" to="nt16" type="b"/>
  <edge id="nt16_nt10" from="nt16" to="nt10" type="b"/>
  <edge id="nt16_nt22" from="nt16" to="nt22" type="b"/>
  <edge id="nt22_nt16" from="nt22" to="nt16" type="b"/>
  <edge id="nt22_nt28" from="nt22" to="nt28" type="b"/>
  <edge id="nt28_nt22" from="nt28" to="nt22" type="b"/>
  <edge id="nt28_nt34" from="nt28" to="nt34" type="b"/>
  <edge id="nt34_nt28" from="nt34" to="nt28" type="b"/>
  <edge id="nt5_nt11" from="nt5" to="nt11" type="b"/>
  <edge id="nt11_nt5" from="nt11" to="nt5" type="b"/>
  <edge id="nt11_nt17" from="nt11" to="nt17" type="b"/>
  <edge id="nt17_nt11" from="nt17" to="nt11" type="b"/>
  <edge id="nt17_nt23" from="nt17" to="nt23" type="b"/>
  <edge id="nt23_nt17" from="nt23" to="nt17" type="b"/>
  <edge id="nt23_nt29" from="nt23" to="nt29" type="b"/>
  <edge id="nt29_nt23" from="nt29" to="nt23" type="b"/>
  <edge id="nt29_nt35" from="nt29" to="nt35" type="b"/>
  <edge id="nt35_nt29" from="nt35" to="nt29" type="b"/>
  <edge id="nt6_nt12" from="nt6" to="nt12" type="b"/>
  <edge id="nt12_nt6" from="nt12" to="nt6" type="b"/>
  <edge id="nt12_nt18" from="nt12" to="nt18" type="b"/>
  <edge id="nt18_nt12" from="nt18" to="nt12" type="b"/>
  <edge id="nt18_nt24" from="nt18" to="nt24" type="b"/>
  <edge id="nt24_nt18" from="nt24" to="nt18" type="b"/>
  <edge id="nt24_nt30" from="nt24" to="nt30" type="b"/>
  <edge id="nt30_nt24" from="nt30" to="nt24" type="b"/>
  <edge id="nt30_nt36" from="nt30" to="nt36" type="b"/>
  <edge id="nt36_nt30" from="nt36" to="nt30" type="b"/>
</edges>
