<routes>
  <vType id="type1" length="6" accel="6" decel="12"/>
  <flow id="i_1" departPos="random_free" from="nt1_nt2" to="nt33_np16" begin="0" end="1" departLane="0" departSpeed="0" number="3" type="type1"/>
  <flow id="i_2" departPos="random_free" from="nt2_nt1" to="nt24_np10" begin="0" end="1" departLane="0" departSpeed="0" number="3" type="type1"/>
  <flow id="i_3" departPos="random_free" from="nt1_nt2" to="nt1_np1" begin="0" end="1" departLane="1" departSpeed="0" number="3" type="type1"/>
  <flow id="i_4" departPos="random_free" from="nt2_nt1" to="nt1_np24" begin="0" end="1" departLane="1" departSpeed="0" number="3" type="type1"/>
  <flow id="i_5" departPos="random_free" from="nt2_nt3" to="nt31_np18" begin="0" end="1" departLane="0" departSpeed="0" number="3" type="type1"/>
  <flow id="i_6" departPos="random_free" from="nt3_nt2" to="nt2_np2" begin="0" end="1" departLane="0" departSpeed="0" number="3" type="type1"/>
  <flow id="i_7" departPos="random_free" from="nt2_nt3" to="nt13_np22" begin="0" end="1" departLane="1" departSpeed="0" number="3" type="type1"/>
  <flow id="i_8" departPos="random_free" from="nt3_nt2" to="nt6_np6" begin="0" end="1" departLane="1" departSpeed="0" number="3" type="type1"/>
  <flow id="i_9" departPos="random_free" from="nt3_nt4" to="nt19_np21" begin="0" end="1" departLane="0" departSpeed="0" number="3" type="type1"/>
  <flow id="i_10" departPos="random_free" from="nt4_nt3" to="nt3_np3" begin="0" end="1" departLane="0" departSpeed="0" number="3" type="type1"/>
  <flow id="i_11" departPos="random_free" from="nt3_nt4" to="nt36_np12" begin="0" end="1" departLane="1" departSpeed="0" number="3" type="type1"/>
  <flow id="i_12" departPos="random_free" from="nt4_nt3" to="nt13_np22" begin="0" end="1" departLane="1" departSpeed="0" number="3" type="type1"/>
  <flow id="i_13" departPos="random_free" from="nt4_nt5" to="nt25_np20" begin="0" end="1" departLane="0" departSpeed="0" number="3" type="type1"/>
  <flow id="i_14" departPos="random_free" from="nt5_nt4" to="nt31_np19" begin="0" end="1" departLane="0" departSpeed="0" number="3" type="type1"/>
  <flow id="i_15" departPos="random_free" from="nt4_nt5" to="nt18_np9" begin="0" end="1" departLane="1" departSpeed="0" number="3" type="type1"/>
  <flow id="i_16" departPos="random_free" from="nt5_nt4" to="nt30_np11" begin="0" end="1" departLane="1" departSpeed="0" number="3" type="type1"/>
  <flow id="i_17" departPos="random_free" from="nt5_nt6" to="nt32_np17" begin="0" end="1" departLane="0" departSpeed="0" number="3" type="type1"/>
  <flow id="i_18" departPos="random_free" from="nt6_nt5" to="nt13_np22" begin="0" end="1" departLane="0" departSpeed="0" number="3" type="type1"/>
  <flow id="i_19" departPos="random_free" from="nt5_nt6" to="nt6_np6" begin="0" end="1" departLane="1" departSpeed="0" number="3" type="type1"/>
  <flow id="i_20" departPos="random_free" from="nt6_nt5" to="nt6_np6" begin="0" end="1" departLane="1" departSpeed="0" number="3" type="type1"/>
  <flow id="i_21" departPos="random_free" from="nt7_nt8" to="nt33_np16" begin="0" end="1" departLane="0" departSpeed="0" number="3" type="type1"/>
  <flow id="i_22" departPos="random_free" from="nt8_nt7" to="nt30_np11" begin="0" end="1" departLane="0" departSpeed="0" number="3" type="type1"/>
  <flow id="i_23" departPos="random_free" from="nt7_nt8" to="nt31_np19" begin="0" end="1" departLane="1" departSpeed="0" number="3" type="type1"/>
  <flow id="i_24" departPos="random_free" from="nt8_nt7" to="nt1_np1" begin="0" end="1" departLane="1" departSpeed="0" number="3" type="type1"/>
  <flow id="i_25" departPos="random_free" from="nt8_nt9" to="nt5_np5" begin="0" end="1" departLane="0" departSpeed="0" number="3" type="type1"/>
  <flow id="i_26" departPos="random_free" from="nt9_nt8" to="nt13_np22" begin="0" end="1" departLane="0" departSpeed="0" number="3" type="type1"/>
  <flow id="i_27" departPos="random_free" from="nt8_nt9" to="nt4_np4" begin="0" end="1" departLane="1" departSpeed="0" number="3" type="type1"/>
  <flow id="i_28" departPos="random_free" from="nt9_nt8" to="nt12_np8" begin="0" end="1" departLane="1" departSpeed="0" number="3" type="type1"/>
  <flow id="i_29" departPos="random_free" from="nt9_nt10" to="nt3_np3" begin="0" end="1" departLane="0" departSpeed="0" number="3" type="type1"/>
  <flow id="i_30" departPos="random_free" from="nt10_nt9" to="nt33_np16" begin="0" end="1" departLane="0" departSpeed="0" number="3" type="type1"/>
  <flow id="i_31" departPos="random_free" from="nt9_nt10" to="nt31_np18" begin="0" end="1" departLane="1" departSpeed="0" number="3" type="type1"/>
  <flow id="i_32" departPos="random_free" from="nt10_nt9" to="nt5_np5" begin="0" end="1" departLane="1" departSpeed="0" number="3" type="type1"/>
  <flow id="i_33" departPos="random_free" from="nt10_nt11" to="nt1_np1" begin="0" end="1" departLane="0" departSpeed="0" number="3" type="type1"/>
  <flow id="i_34" departPos="random_free" from="nt11_nt10" to="nt34_np15" begin="0" end="1" departLane="0" departSpeed="0" number="3" type="type1"/>
  <flow id="i_35" departPos="random_free" from="nt10_nt11" to="nt36_np12" begin="0" end="1" departLane="1" departSpeed="0" number="3" type="type1"/>
  <flow id="i_36" departPos="random_free" from="nt11_nt10" to="nt35_np14" begin="0" end="1" departLane="1" departSpeed="0" number="3" type="type1"/>
  <flow id="i_37" departPos="random_free" from="nt11_nt12" to="nt36_np12" begin="0" end="1" departLane="0" departSpeed="0" number="3" type="type1"/>
  <flow id="i_38" departPos="random_free" from="nt12_nt11" to="nt35_np14" begin="0" end="1" departLane="0" departSpeed="0" number="3" type="type1"/>
  <flow id="i_39" departPos="random_free" from="nt11_nt12" to="nt19_np21" begin="0" end="1" departLane="1" departSpeed="0" number="3" type="type1"/>
  <flow id="i_40" departPos="random_free" from="nt12_nt11" to="nt24_np10" begin="0" end="1" departLane="1" departSpeed="0" number="3" type="type1"/>
  <flow id="i_41" departPos="random_free" from="nt13_nt14" to="nt36_np13" begin="0" end="1" departLane="0" departSpeed="0" number="3" type="type1"/>
  <flow id="i_42" departPos="random_free" from="nt14_nt13" to="nt12_np8" begin="0" end="1" departLane="0" departSpeed="0" number="3" type="type1"/>
  <flow id="i_43" departPos="random_free" from="nt13_nt14" to="nt6_np7" begin="0" end="1" departLane="1" departSpeed="0" number="3" type="type1"/>
  <flow id="i_44" departPos="random_free" from="nt14_nt13" to="nt25_np20" begin="0" end="1" departLane="1" departSpeed="0" number="3" type="type1"/>
  <flow id="i_45" departPos="random_free" from="nt14_nt15" to="nt18_np9" begin="0" end="1" departLane="0" departSpeed="0" number="3" type="type1"/>
  <flow id="i_46" departPos="random_free" from="nt15_nt14" to="nt4_np4" begin="0" end="1" departLane="0" departSpeed="0" number="3" type="type1"/>
  <flow id="i_47" departPos="random_free" from="nt14_nt15" to="nt1_np24" begin="0" end="1" departLane="1" departSpeed="0" number="3" type="type1"/>
  <flow id="i_48" departPos="random_free" from="nt15_nt14" to="nt33_np16" begin="0" end="1" departLane="1" departSpeed="0" number="3" type="type1"/>
  <flow id="i_49" departPos="random_free" from="nt15_nt16" to="nt6_np7" begin="0" end="1" departLane="0" departSpeed="0" number="3" type="type1"/>
  <flow id="i_50" departPos="random_free" from="nt16_nt15" to="nt1_np1" begin="0" end="1" departLane="0" departSpeed="0" number="3" type="type1"/>
  <flow id="i_51" departPos="random_free" from="nt15_nt16" to="nt19_np21" begin="0" end="1" departLane="1" departSpeed="0" number="3" type="type1"/>
  <flow id="i_52" departPos="random_free" from="nt16_nt15" to="nt3_np3" begin="0" end="1" departLane="1" departSpeed="0" number="3" type="type1"/>
  <flow id="i_53" departPos="random_free" from="nt16_nt17" to="nt18_np9" begin="0" end="1" departLane="0" departSpeed="0" number="3" type="type1"/>
  <flow id="i_54" departPos="random_free" from="nt17_nt16" to="nt1_np1" begin="0" end="1" departLane="0" departSpeed="0" number="3" type="type1"/>
  <flow id="i_55" departPos="random_free" from="nt16_nt17" to="nt30_np11" begin="0" end="1" departLane="1" departSpeed="0" number="3" type="type1"/>
  <flow id="i_56" departPos="random_free" from="nt17_nt16" to="nt5_np5" begin="0" end="1" departLane="1" departSpeed="0" number="3" type="type1"/>
  <flow id="i_57" departPos="random_free" from="nt17_nt18" to="nt3_np3" begin="0" end="1" departLane="0" departSpeed="0" number="3" type="type1"/>
  <flow id="i_58" departPos="random_free" from="nt18_nt17" to="nt18_np9" begin="0" end="1" departLane="0" departSpeed="0" number="3" type="type1"/>
  <flow id="i_59" departPos="random_free" from="nt17_nt18" to="nt19_np21" begin="0" end="1" departLane="1" departSpeed="0" number="3" type="type1"/>
  <flow id="i_60" departPos="random_free" from="nt18_nt17" to="nt4_np4" begin="0" end="1" departLane="1" departSpeed="0" number="3" type="type1"/>
  <flow id="i_61" departPos="random_free" from="nt19_nt20" to="nt33_np16" begin="0" end="1" departLane="0" departSpeed="0" number="3" type="type1"/>
  <flow id="i_62" departPos="random_free" from="nt20_nt19" to="nt12_np8" begin="0" end="1" departLane="0" departSpeed="0" number="3" type="type1"/>
  <flow id="i_63" departPos="random_free" from="nt19_nt20" to="nt36_np13" begin="0" end="1" departLane="1" departSpeed="0" number="3" type="type1"/>
  <flow id="i_64" departPos="random_free" from="nt20_nt19" to="nt25_np20" begin="0" end="1" departLane="1" departSpeed="0" number="3" type="type1"/>
  <flow id="i_65" departPos="random_free" from="nt20_nt21" to="nt4_np4" begin="0" end="1" departLane="0" departSpeed="0" number="3" type="type1"/>
  <flow id="i_66" departPos="random_free" from="nt21_nt20" to="nt6_np6" begin="0" end="1" departLane="0" departSpeed="0" number="3" type="type1"/>
  <flow id="i_67" departPos="random_free" from="nt20_nt21" to="nt31_np19" begin="0" end="1" departLane="1" departSpeed="0" number="3" type="type1"/>
  <flow id="i_68" departPos="random_free" from="nt21_nt20" to="nt2_np2" begin="0" end="1" departLane="1" departSpeed="0" number="3" type="type1"/>
  <flow id="i_69" departPos="random_free" from="nt21_nt22" to="nt1_np24" begin="0" end="1" departLane="0" departSpeed="0" number="3" type="type1"/>
  <flow id="i_70" departPos="random_free" from="nt22_nt21" to="nt32_np17" begin="0" end="1" departLane="0" departSpeed="0" number="3" type="type1"/>
  <flow id="i_71" departPos="random_free" from="nt21_nt22" to="nt19_np21" begin="0" end="1" departLane="1" departSpeed="0" number="3" type="type1"/>
  <flow id="i_72" departPos="random_free" from="nt22_nt21" to="nt35_np14" begin="0" end="1" departLane="1" departSpeed="0" number="3" type="type1"/>
  <flow id="i_73" departPos="random_free" from="nt22_nt23" to="nt5_np5" begin="0" end="1" departLane="0" departSpeed="0" number="3" type="type1"/>
  <flow id="i_74" departPos="random_free" from="nt23_nt22" to="nt34_np15" begin="0" end="1" departLane="0" departSpeed="0" number="3" type="type1"/>
  <flow id="i_75" departPos="random_free" from="nt22_nt23" to="nt12_np8" begin="0" end="1" departLane="1" departSpeed="0" number="3" type="type1"/>
  <flow id="i_76" departPos="random_free" from="nt23_nt22" to="nt4_np4" begin="0" end="1" departLane="1" departSpeed="0" number="3" type="type1"/>
  <flow id="i_77" departPos="random_free" from="nt23_nt24" to="nt25_np20" begin="0" end="1" departLane="0" departSpeed="0" number="3" type="type1"/>
  <flow id="i_78" departPos="random_free" from="nt24_nt23" to="nt5_np5" begin="0" end="1" departLane="0" departSpeed="0" number="3" type="type1"/>
  <flow id="i_79" departPos="random_free" from="nt23_nt24" to="nt18_np9" begin="0" end="1" departLane="1" departSpeed="0" number="3" type="type1"/>
  <flow id="i_80" departPos="random_free" from="nt24_nt23" to="nt31_np18" begin="0" end="1" departLane="1" departSpeed="0" number="3" type="type1"/>
  <flow id="i_81" departPos="random_free" from="nt25_nt26" to="nt12_np8" begin="0" end="1" departLane="0" departSpeed="0" number="3" type="type1"/>
  <flow id="i_82" departPos="random_free" from="nt26_nt25" to="nt33_np16" begin="0" end="1" departLane="0" departSpeed="0" number="3" type="type1"/>
  <flow id="i_83" departPos="random_free" from="nt25_nt26" to="nt32_np17" begin="0" end="1" departLane="1" departSpeed="0" number="3" type="type1"/>
  <flow id="i_84" departPos="random_free" from="nt26_nt25" to="nt36_np13" begin="0" end="1" departLane="1" departSpeed="0" number="3" type="type1"/>
  <flow id="i_85" departPos="random_free" from="nt26_nt27" to="nt6_np6" begin="0" end="1" departLane="0" departSpeed="0" number="3" type="type1"/>
  <flow id="i_86" departPos="random_free" from="nt27_nt26" to="nt32_np17" begin="0" end="1" departLane="0" departSpeed="0" number="3" type="type1"/>
  <flow id="i_87" departPos="random_free" from="nt26_nt27" to="nt35_np14" begin="0" end="1" departLane="1" departSpeed="0" number="3" type="type1"/>
  <flow id="i_88" departPos="random_free" from="nt27_nt26" to="nt36_np12" begin="0" end="1" departLane="1" departSpeed="0" number="3" type="type1"/>
  <flow id="i_89" departPos="random_free" from="nt27_nt28" to="nt3_np3" begin="0" end="1" departLane="0" departSpeed="0" number="3" type="type1"/>
  <flow id="i_90" departPos="random_free" from="nt28_nt27" to="nt7_np23" begin="0" end="1" departLane="0" departSpeed="0" number="3" type="type1"/>
  <flow id="i_91" departPos="random_free" from="nt27_nt28" to="nt34_np15" begin="0" end="1" departLane="1" departSpeed="0" number="3" type="type1"/>
  <flow id="i_92" departPos="random_free" from="nt28_nt27" to="nt33_np16" begin="0" end="1" departLane="1" departSpeed="0" number="3" type="type1"/>
  <flow id="i_93" departPos="random_free" from="nt28_nt29" to="nt12_np8" begin="0" end="1" departLane="0" departSpeed="0" number="3" type="type1"/>
  <flow id="i_94" departPos="random_free" from="nt29_nt28" to="nt36_np13" begin="0" end="1" departLane="0" departSpeed="0" number="3" type="type1"/>
  <flow id="i_95" departPos="random_free" from="nt28_nt29" to="nt3_np3" begin="0" end="1" departLane="1" departSpeed="0" number="3" type="type1"/>
  <flow id="i_96" departPos="random_free" from="nt29_nt28" to="nt7_np23" begin="0" end="1" departLane="1" departSpeed="0" number="3" type="type1"/>
  <flow id="i_97" departPos="random_free" from="nt29_nt30" to="nt4_np4" begin="0" end="1" departLane="0" departSpeed="0" number="3" type="type1"/>
  <flow id="i_98" departPos="random_free" from="nt30_nt29" to="nt33_np16" begin="0" end="1" departLane="0" departSpeed="0" number="3" type="type1"/>
  <flow id="i_99" departPos="random_free" from="nt29_nt30" to="nt3_np3" begin="0" end="1" departLane="1" departSpeed="0" number="3" type="type1"/>
  <flow id="i_100" departPos="random_free" from="nt30_nt29" to="nt19_np21" begin="0" end="1" departLane="1" departSpeed="0" number="3" type="type1"/>
  <flow id="i_101" departPos="random_free" from="nt31_nt32" to="nt36_np13" begin="0" end="1" departLane="0" departSpeed="0" number="3" type="type1"/>
  <flow id="i_102" departPos="random_free" from="nt32_nt31" to="nt25_np20" begin="0" end="1" departLane="0" departSpeed="0" number="3" type="type1"/>
  <flow id="i_103" departPos="random_free" from="nt31_nt32" to="nt1_np24" begin="0" end="1" departLane="1" departSpeed="0" number="3" type="type1"/>
  <flow id="i_104" departPos="random_free" from="nt32_nt31" to="nt36_np13" begin="0" end="1" departLane="1" departSpeed="0" number="3" type="type1"/>
  <flow id="i_105" departPos="random_free" from="nt32_nt33" to="nt31_np19" begin="0" end="1" departLane="0" departSpeed="0" number="3" type="type1"/>
  <flow id="i_106" departPos="random_free" from="nt33_nt32" to="nt6_np7" begin="0" end="1" departLane="0" departSpeed="0" number="3" type="type1"/>
  <flow id="i_107" departPos="random_free" from="nt32_nt33" to="nt36_np12" begin="0" end="1" departLane="1" departSpeed="0" number="3" type="type1"/>
  <flow id="i_108" departPos="random_free" from="nt33_nt32" to="nt1_np1" begin="0" end="1" departLane="1" departSpeed="0" number="3" type="type1"/>
  <flow id="i_109" departPos="random_free" from="nt33_nt34" to="nt33_np16" begin="0" end="1" departLane="0" departSpeed="0" number="3" type="type1"/>
  <flow id="i_110" departPos="random_free" from="nt34_nt33" to="nt1_np1" begin="0" end="1" departLane="0" departSpeed="0" number="3" type="type1"/>
  <flow id="i_111" departPos="random_free" from="nt33_nt34" to="nt6_np6" begin="0" end="1" departLane="1" departSpeed="0" number="3" type="type1"/>
  <flow id="i_112" departPos="random_free" from="nt34_nt33" to="nt36_np12" begin="0" end="1" departLane="1" departSpeed="0" number="3" type="type1"/>
  <flow id="i_113" departPos="random_free" from="nt34_nt35" to="nt25_np20" begin="0" end="1" departLane="0" departSpeed="0" number="3" type="type1"/>
  <flow id="i_114" departPos="random_free" from="nt35_nt34" to="nt33_np16" begin="0" end="1" departLane="0" departSpeed="0" number="3" type="type1"/>
  <flow id="i_115" departPos="random_free" from="nt34_nt35" to="nt6_np6" begin="0" end="1" departLane="1" departSpeed="0" number="3" type="type1"/>
  <flow id="i_116" departPos="random_free" from="nt35_nt34" to="nt2_np2" begin="0" end="1" departLane="1" departSpeed="0" number="3" type="type1"/>
  <flow id="i_117" departPos="random_free" from="nt35_nt36" to="nt2_np2" begin="0" end="1" departLane="0" departSpeed="0" number="3" type="type1"/>
  <flow id="i_118" departPos="random_free" from="nt36_nt35" to="nt36_np13" begin="0" end="1" departLane="0" departSpeed="0" number="3" type="type1"/>
  <flow id="i_119" departPos="random_free" from="nt35_nt36" to="nt18_np9" begin="0" end="1" departLane="1" departSpeed="0" number="3" type="type1"/>
  <flow id="i_120" departPos="random_free" from="nt36_nt35" to="nt5_np5" begin="0" end="1" departLane="1" departSpeed="0" number="3" type="type1"/>
  <flow id="i_121" departPos="random_free" from="nt1_nt7" to="nt25_np20" begin="0" end="1" departLane="0" departSpeed="0" number="3" type="type1"/>
  <flow id="i_122" departPos="random_free" from="nt7_nt1" to="nt30_np11" begin="0" end="1" departLane="0" departSpeed="0" number="3" type="type1"/>
  <flow id="i_123" departPos="random_free" from="nt7_nt13" to="nt36_np13" begin="0" end="1" departLane="0" departSpeed="0" number="3" type="type1"/>
  <flow id="i_124" departPos="random_free" from="nt13_nt7" to="nt4_np4" begin="0" end="1" departLane="0" departSpeed="0" number="3" type="type1"/>
  <flow id="i_125" departPos="random_free" from="nt13_nt19" to="nt30_np11" begin="0" end="1" departLane="0" departSpeed="0" number="3" type="type1"/>
  <flow id="i_126" departPos="random_free" from="nt19_nt13" to="nt36_np13" begin="0" end="1" departLane="0" departSpeed="0" number="3" type="type1"/>
  <flow id="i_127" departPos="random_free" from="nt19_nt25" to="nt1_np24" begin="0" end="1" departLane="0" departSpeed="0" number="3" type="type1"/>
  <flow id="i_128" departPos="random_free" from="nt25_nt19" to="nt34_np15" begin="0" end="1" departLane="0" departSpeed="0" number="3" type="type1"/>
  <flow id="i_129" departPos="random_free" from="nt25_nt31" to="nt30_np11" begin="0" end="1" departLane="0" departSpeed="0" number="3" type="type1"/>
  <flow id="i_130" departPos="random_free" from="nt31_nt25" to="nt33_np16" begin="0" end="1" departLane="0" departSpeed="0" number="3" type="type1"/>
  <flow id="i_131" departPos="random_free" from="nt2_nt8" to="nt25_np20" begin="0" end="1" departLane="0" departSpeed="0" number="3" type="type1"/>
  <flow id="i_132" departPos="random_free" from="nt8_nt2" to="nt1_np1" begin="0" end="1" departLane="0" departSpeed="0" number="3" type="type1"/>
  <flow id="i_133" departPos="random_free" from="nt8_nt14" to="nt3_np3" begin="0" end="1" departLane="0" departSpeed="0" number="3" type="type1"/>
  <flow id="i_134" departPos="random_free" from="nt14_nt8" to="nt6_np6" begin="0" end="1" departLane="0" departSpeed="0" number="3" type="type1"/>
  <flow id="i_135" departPos="random_free" from="nt14_nt20" to="nt5_np5" begin="0" end="1" departLane="0" departSpeed="0" number="3" type="type1"/>
  <flow id="i_136" departPos="random_free" from="nt20_nt14" to="nt35_np14" begin="0" end="1" departLane="0" departSpeed="0" number="3" type="type1"/>
  <flow id="i_137" departPos="random_free" from="nt20_nt26" to="nt35_np14" begin="0" end="1" departLane="0" departSpeed="0" number="3" type="type1"/>
  <flow id="i_138" departPos="random_free" from="nt26_nt20" to="nt32_np17" begin="0" end="1" departLane="0" departSpeed="0" number="3" type="type1"/>
  <flow id="i_139" departPos="random_free" from="nt26_nt32" to="nt6_np6" begin="0" end="1" departLane="0" departSpeed="0" number="3" type="type1"/>
  <flow id="i_140" departPos="random_free" from="nt32_nt26" to="nt1_np24" begin="0" end="1" departLane="0" departSpeed="0" number="3" type="type1"/>
  <flow id="i_141" departPos="random_free" from="nt3_nt9" to="nt33_np16" begin="0" end="1" departLane="0" departSpeed="0" number="3" type="type1"/>
  <flow id="i_142" departPos="random_free" from="nt9_nt3" to="nt7_np23" begin="0" end="1" departLane="0" departSpeed="0" number="3" type="type1"/>
  <flow id="i_143" departPos="random_free" from="nt9_nt15" to="nt6_np6" begin="0" end="1" departLane="0" departSpeed="0" number="3" type="type1"/>
  <flow id="i_144" departPos="random_free" from="nt15_nt9" to="nt30_np11" begin="0" end="1" departLane="0" departSpeed="0" number="3" type="type1"/>
  <flow id="i_145" departPos="random_free" from="nt15_nt21" to="nt7_np23" begin="0" end="1" departLane="0" departSpeed="0" number="3" type="type1"/>
  <flow id="i_146" departPos="random_free" from="nt21_nt15" to="nt31_np19" begin="0" end="1" departLane="0" departSpeed="0" number="3" type="type1"/>
  <flow id="i_147" departPos="random_free" from="nt21_nt27" to="nt6_np6" begin="0" end="1" departLane="0" departSpeed="0" number="3" type="type1"/>
  <flow id="i_148" departPos="random_free" from="nt27_nt21" to="nt36_np13" begin="0" end="1" departLane="0" departSpeed="0" number="3" type="type1"/>
  <flow id="i_149" departPos="random_free" from="nt27_nt33" to="nt13_np22" begin="0" end="1" departLane="0" departSpeed="0" number="3" type="type1"/>
  <flow id="i_150" departPos="random_free" from="nt33_nt27" to="nt2_np2" begin="0" end="1" departLane="0" departSpeed="0" number="3" type="type1"/>
  <flow id="i_151" departPos="random_free" from="nt4_nt10" to="nt31_np19" begin="0" end="1" departLane="0" departSpeed="0" number="3" type="type1"/>
  <flow id="i_152" departPos="random_free" from="nt10_nt4" to="nt18_np9" begin="0" end="1" departLane="0" departSpeed="0" number="3" type="type1"/>
  <flow id="i_153" departPos="random_free" from="nt10_nt16" to="nt35_np14" begin="0" end="1" departLane="0" departSpeed="0" number="3" type="type1"/>
  <flow id="i_154" departPos="random_free" from="nt16_nt10" to="nt33_np16" begin="0" end="1" departLane="0" departSpeed="0" number="3" type="type1"/>
  <flow id="i_155" departPos="random_free" from="nt16_nt22" to="nt31_np19" begin="0" end="1" departLane="0" departSpeed="0" number="3" type="type1"/>
  <flow id="i_156" departPos="random_free" from="nt22_nt16" to="nt24_np10" begin="0" end="1" departLane="0" departSpeed="0" number="3" type="type1"/>
  <flow id="i_157" departPos="random_free" from="nt22_nt28" to="nt33_np16" begin="0" end="1" departLane="0" departSpeed="0" number="3" type="type1"/>
  <flow id="i_158" departPos="random_free" from="nt28_nt22" to="nt25_np20" begin="0" end="1" departLane="0" departSpeed="0" number="3" type="type1"/>
  <flow id="i_159" departPos="random_free" from="nt28_nt34" to="nt31_np18" begin="0" end="1" departLane="0" departSpeed="0" number="3" type="type1"/>
  <flow id="i_160" departPos="random_free" from="nt34_nt28" to="nt1_np24" begin="0" end="1" departLane="0" departSpeed="0" number="3" type="type1"/>
  <flow id="i_161" departPos="random_free" from="nt5_nt11" to="nt13_np22" begin="0" end="1" departLane="0" departSpeed="0" number="3" type="type1"/>
  <flow id="i_162" departPos="random_free" from="nt11_nt5" to="nt5_np5" begin="0" end="1" departLane="0" departSpeed="0" number="3" type="type1"/>
  <flow id="i_163" departPos="random_free" from="nt11_nt17" to="nt31_np19" begin="0" end="1" departLane="0" departSpeed="0" number="3" type="type1"/>
  <flow id="i_164" departPos="random_free" from="nt17_nt11" to="nt31_np18" begin="0" end="1" departLane="0" departSpeed="0" number="3" type="type1"/>
  <flow id="i_165" departPos="random_free" from="nt17_nt23" to="nt3_np3" begin="0" end="1" departLane="0" departSpeed="0" number="3" type="type1"/>
  <flow id="i_166" departPos="random_free" from="nt23_nt17" to="nt30_np11" begin="0" end="1" departLane="0" departSpeed="0" number="3" type="type1"/>
  <flow id="i_167" departPos="random_free" from="nt23_nt29" to="nt13_np22" begin="0" end="1" departLane="0" departSpeed="0" number="3" type="type1"/>
  <flow id="i_168" departPos="random_free" from="nt29_nt23" to="nt34_np15" begin="0" end="1" departLane="0" departSpeed="0" number="3" type="type1"/>
  <flow id="i_169" departPos="random_free" from="nt29_nt35" to="nt25_np20" begin="0" end="1" departLane="0" departSpeed="0" number="3" type="type1"/>
  <flow id="i_170" departPos="random_free" from="nt35_nt29" to="nt36_np13" begin="0" end="1" departLane="0" departSpeed="0" number="3" type="type1"/>
  <flow id="i_171" departPos="random_free" from="nt6_nt12" to="nt6_np6" begin="0" end="1" departLane="0" departSpeed="0" number="3" type="type1"/>
  <flow id="i_172" departPos="random_free" from="nt12_nt6" to="nt33_np16" begin="0" end="1" departLane="0" departSpeed="0" number="3" type="type1"/>
  <flow id="i_173" departPos="random_free" from="nt12_nt18" to="nt7_np23" begin="0" end="1" departLane="0" departSpeed="0" number="3" type="type1"/>
  <flow id="i_174" departPos="random_free" from="nt18_nt12" to="nt30_np11" begin="0" end="1" departLane="0" departSpeed="0" number="3" type="type1"/>
  <flow id="i_175" departPos="random_free" from="nt18_nt24" to="nt33_np16" begin="0" end="1" departLane="0" departSpeed="0" number="3" type="type1"/>
  <flow id="i_176" departPos="random_free" from="nt24_nt18" to="nt35_np14" begin="0" end="1" departLane="0" departSpeed="0" number="3" type="type1"/>
  <flow id="i_177" departPos="random_free" from="nt24_nt30" to="nt30_np11" begin="0" end="1" departLane="0" departSpeed="0" number="3" type="type1"/>
  <flow id="i_178" departPos="random_free" from="nt30_nt24" to="nt35_np14" begin="0" end="1" departLane="0" departSpeed="0" number="3" type="type1"/>
  <flow id="i_179" departPos="random_free" from="nt30_nt36" to="nt30_np11" begin="0" end="1" departLane="0" departSpeed="0" number="3" type="type1"/>
  <flow id="i_180" departPos="random_free" from="nt36_nt30" to="nt19_np21" begin="0" end="1" departLane="0" departSpeed="0" number="3" type="type1"/>
  <flow id="f_0_0" departPos="random_free" from="np14_nt35" to="nt5_np5" begin="0" end="300" vehsPerHour="192" type="type1"/>
  <flow id="f_0_1" departPos="random_free" from="np15_nt34" to="nt3_np3" begin="0" end="300" vehsPerHour="192" type="type1"/>
  <flow id="f_0_2" departPos="random_free" from="np16_nt33" to="nt4_np4" begin="0" end="300" vehsPerHour="192" type="type1"/>
  <flow id="f_0_3" departPos="random_free" from="np17_nt32" to="nt2_np2" begin="0" end="300" vehsPerHour="192" type="type1"/>
  <flow id="f_0_4" departPos="random_free" from="np19_nt31" to="nt6_np7" begin="0" end="300" vehsPerHour="320" type="type1"/>
  <flow id="f_0_5" departPos="random_free" from="np21_nt19" to="nt24_np10" begin="0" end="300" vehsPerHour="320" type="type1"/>
  <flow id="f_0_6" departPos="random_free" from="np22_nt13" to="nt18_np9" begin="0" end="300" vehsPerHour="320" type="type1"/>
  <flow id="f_0_7" departPos="random_free" from="np24_nt1" to="nt36_np12" begin="0" end="300" vehsPerHour="320" type="type1"/>
  <flow id="f_1_0" departPos="random_free" from="np14_nt35" to="nt5_np5" begin="300" end="600" vehsPerHour="336" type="type1"/>
  <flow id="f_1_1" departPos="random_free" from="np15_nt34" to="nt3_np3" begin="300" end="600" vehsPerHour="336" type="type1"/>
  <flow id="f_1_2" departPos="random_free" from="np16_nt33" to="nt4_np4" begin="300" end="600" vehsPerHour="336" type="type1"/>
  <flow id="f_1_3" departPos="random_free" from="np17_nt32" to="nt2_np2" begin="300" end="600" vehsPerHour="336" type="type1"/>
  <flow id="f_1_4" departPos="random_free" from="np19_nt31" to="nt6_np7" begin="300" end="600" vehsPerHour="560" type="type1"/>
  <flow id="f_1_5" departPos="random_free" from="np21_nt19" to="nt24_np10" begin="300" end="600" vehsPerHour="560" type="type1"/>
  <flow id="f_1_6" departPos="random_free" from="np22_nt13" to="nt18_np9" begin="300" end="600" vehsPerHour="560" type="type1"/>
  <flow id="f_1_7" departPos="random_free" from="np24_nt1" to="nt36_np12" begin="300" end="600" vehsPerHour="560" type="type1"/>
  <flow id="f_2_0" departPos="random_free" from="np14_nt35" to="nt5_np5" begin="600" end="900" vehsPerHour="432" type="type1"/>
  <flow id="f_2_1" departPos="random_free" from="np15_nt34" to="nt3_np3" begin="600" end="900" vehsPerHour="432" type="type1"/>
  <flow id="f_2_2" departPos="random_free" from="np16_nt33" to="nt4_np4" begin="600" end="900" vehsPerHour="432" type="type1"/>
  <flow id="f_2_3" departPos="random_free" from="np17_nt32" to="nt2_np2" begin="600" end="900" vehsPerHour="432" type="type1"/>
  <flow id="f_2_4" departPos="random_free" from="np19_nt31" to="nt6_np7" begin="600" end="900" vehsPerHour="720" type="type1"/>
  <flow id="f_2_5" departPos="random_free" from="np21_nt19" to="nt24_np10" begin="600" end="900" vehsPerHour="720" type="type1"/>
  <flow id="f_2_6" departPos="random_free" from="np22_nt13" to="nt18_np9" begin="600" end="900" vehsPerHour="720" type="type1"/>