<additional>
  <laneAreaDetector file="ild.out" freq="5" id="nt6_np7_0" lane="nt6_np7_0" pos="1" endPos="50"/>
  <laneAreaDetector file="ild.out" freq="5" id="nt6_np7_1" lane="nt6_np7_1" pos="1" endPos="50"/>
  <laneAreaDetector file="ild.out" freq="5" id="nt12_np8_0" lane="nt12_np8_0" pos="1" endPos="50"/>
  <laneAreaDetector file="ild.out" freq="5" id="nt12_np8_1" lane="nt12_np8_1" pos="1" endPos="50"/>
  <laneAreaDetector file="ild.out" freq="5" id="nt18_np9_0" lane="nt18_np9_0" pos="1" endPos="50"/>
  <laneAreaDetector file="ild.out" freq="5" id="nt18_np9_1" lane="nt18_np9_1" pos="1" endPos="50"/>
  <laneAreaDetector file="ild.out" freq="5" id="nt24_np10_0" lane="nt24_np10_0" pos="1" endPos="50"/>
  <laneAreaDetector file="ild.out" freq="5" id="nt24_np10_1" lane="nt24_np10_1" pos="1" endPos="50"/>
  <laneAreaDetector file="ild.out" freq="5" id="nt30_np11_0" lane="nt30_np11_0" pos="1" endPos="50"/>
  <laneAreaDetector file="ild.out" freq="5" id="nt30_np11_1" lane="nt30_np11_1" pos="1" endPos="50"/>
  <laneAreaDetector file="ild.out" freq="5" id="nt36_np12_0" lane="nt36_np12_0" pos="1" endPos="50"/>
  <laneAreaDetector file="ild.out" freq="5" id="nt36_np12_1" lane="nt36_np12_1" pos="1" endPos="50"/>
  <laneAreaDetector file="ild.out" freq="5" id="nt31_np19_0" lane="nt31_np19_0" pos="1" endPos="50"/>
  <laneAreaDetector file="ild.out" freq="5" id="nt31_np19_1" lane="nt31_np19_1" pos="1" endPos="50"/>
  <laneAreaDetector file="ild.out" freq="5" id="nt25_np20_0" lane="nt25_np20_0" pos="1" endPos="50"/>
  <laneAreaDetector file="ild.out" freq="5" id="nt25_np20_1" lane="nt25_np20_1" pos="1" endPos="50"/>
  <laneAreaDetector file="ild.out" freq="5" id="nt19_np21_0" lane="nt19_np21_0" pos="1" endPos="50"/>
  <laneAreaDetector file="ild.out" freq="5" id="nt19_np21_1" lane="nt19_np21_1" pos="1" endPos="50"/>
  <laneAreaDetector file="ild.out" freq="5" id="nt13_np22_0" lane="nt13_np22_0" pos="1" endPos="50"/>
  <laneAreaDetector file="ild.out" freq="5" id="nt13_np22_1" lane="nt13_np22_1" pos="1" endPos="50"/>
  <laneAreaDetector file="ild.out" freq="5" id="nt7_np23_0" lane="nt7_np23_0" pos="1" endPos="50"/>
  <laneAreaDetector file="ild.out" freq="5" id="nt7_np23_1" lane="nt7_np23_1" pos="1" endPos="50"/>
  <laneAreaDetector file="ild.out" freq="5" id="nt1_np24_0" lane="nt1_np24_0" pos="1" endPos="50"/>
  <laneAreaDetector file="ild.out" freq="5" id="nt1_np24_1" lane="nt1_np24_1" pos="1" endPos="50"/>
  <laneAreaDetector file="ild.out" freq="5" id="nt1_np1_0" lane="nt1_np1_0" pos="1" endPos="50"/>
  <laneAreaDetector file="ild.out" freq="5" id="nt2_np2_0" lane="nt2_np2_0" pos="1" endPos="50"/>
  <laneAreaDetector file="ild.out" freq="5" id="nt3_np3_0" lane="nt3_np3_0" pos="1" endPos="50"/>
  <laneAreaDetector file="ild.out" freq="5" id="nt4_np4_0" lane="nt4_np4_0" pos="1" endPos="50"/>
  <laneAreaDetector file="ild.out" freq="5" id="nt5_np5_0" lane="nt5_np5_0" pos="1" endPos="50"/>
  <laneAreaDetector file="ild.out" freq="5" id="nt6_np6_0" lane="nt6_np6_0" pos="1" endPos="50"/>
  <laneAreaDetector file="ild.out" freq="5" id="nt36_np13_0" lane="nt36_np13_0" pos="1" endPos="50"/>
  <laneAreaDetector file="ild.out" freq="5" id="nt35_np14_0" lane="nt35_np14_0" pos="1" endPos="50"/>
  <laneAreaDetector file="ild.out" freq="5" id="nt34_np15_0" lane="nt34_np15_0" pos="1" endPos="50"/>
  <laneAreaDetector file="ild.out" freq="5" id="nt33_np16_0" lane="nt33_np16_0" pos="1" endPos="50"/>
  <laneAreaDetector file="ild.out" freq="5" id="nt32_np17_0" lane="nt32_np17_0" pos="1" endPos="50"/>
  <laneAreaDetector file="ild.out" freq="5" id="nt31_np18_0" lane="nt31_np18_0" pos="1" endPos="50"/>
  <laneAreaDetector file="ild.out" freq="5" id="nt1_nt2_0" lane="nt1_nt2_0" pos="1" endPos="50"/>
  <laneAreaDetector file="ild.out" freq="5" id="nt2_nt1_0" lane="nt2_nt1_0" pos="1" endPos="50"/>
  <laneAreaDetector file="ild.out" freq="5" id="nt1_nt2_1" lane="nt1_nt2_1" pos="1" endPos="50"/>
  <laneAreaDetector file="ild.out" freq="5" id="nt2_nt1_1" lane="nt2_nt1_1" pos="1" endPos="50"/>
  <laneAreaDetector file="ild.out" freq="5" id="nt2_nt3_0" lane="nt2_nt3_0" pos="1" endPos="50"/>
  <laneAreaDetector file="ild.out" freq="5" id="nt3_nt2_0" lane="nt3_nt2_0" pos="1" endPos="50"/>
  <laneAreaDetector file="ild.out" freq="5" id="nt2_nt3_1" lane="nt2_nt3_1" pos="1" endPos="50"/>
  <laneAreaDetector file="ild.out" freq="5" id="nt3_nt2_1" lane="nt3_nt2_1" pos="1" endPos="50"/>
  <laneAreaDetector file="ild.out" freq="5" id="nt3_nt4_0" lane="nt3_nt4_0" pos="1" endPos="50"/>
  <laneAreaDetector file="ild.out" freq="5" id="nt4_nt3_0" lane="nt4_nt3_0" pos="1" endPos="50"/>
  <laneAreaDetector file="ild.out" freq="5" id="nt3_nt4_1" lane="nt3_nt4_1" pos="1" endPos="50"/>
  <laneAreaDetector file="ild.out" freq="5" id="nt4_nt3_1" lane="nt4_nt3_1" pos="1" endPos="50"/>
  <laneAreaDetector file="ild.out" freq="5" id="nt4_nt5_0" lane="nt4_nt5_0" pos="1" endPos="50"/>
  <laneAreaDetector file="ild.out" freq="5" id="nt5_nt4_0" lane="nt5_nt4_0" pos="1" endPos="50"/>
  <laneAreaDetector file="ild.out" freq="5" id="nt4_nt5_1" lane="nt4_nt5_1" pos="1" endPos="50"/>
  <laneAreaDetector file="ild.out" freq="5" id="nt5_nt4_1" lane="nt5_nt4_1" pos="1" endPos="50"/>
  <laneAreaDetector file="ild.out" freq="5" id="nt5_nt6_0" lane="nt5_nt6_0" pos="1" endPos="50"/>
  <laneAreaDetector file="ild.out" freq="5" id="nt6_nt5_0" lane="nt6_nt5_0" pos="1" endPos="50"/>
  <laneAreaDetector file="ild.out" freq="5" id="nt5_nt6_1" lane="nt5_nt6_1" pos="1" endPos="50"/>
  <laneAreaDetector file="ild.out" freq="5" id="nt6_nt5_1" lane="nt6_nt5_1" pos="1" endPos="50"/>
  <laneAreaDetector file="ild.out" freq="5" id="nt7_nt8_0" lane="nt7_nt8_0" pos="1" endPos="50"/>
  <laneAreaDetector file="ild.out" freq="5" id="nt8_nt7_0" lane="nt8_nt7_0" pos="1" endPos="50"/>
  <laneAreaDetector file="ild.out" freq="5" id="nt7_nt8_1" lane="nt7_nt8_1" pos="1" endPos="50"/>
  <laneAreaDetector file="ild.out" freq="5" id="nt8_nt7_1" lane="nt8_nt7_1" pos="1" endPos="50"/>
  <laneAreaDetector file="ild.out" freq="5" id="nt8_nt9_0" lane="nt8_nt9_0" pos="1" endPos="50"/>
  <laneAreaDetector file="ild.out" freq="5" id="nt9_nt8_0" lane="nt9_nt8_0" pos="1" endPos="50"/>
  <laneAreaDetector file="ild.out" freq="5" id="nt8_nt9_1" lane="nt8_nt9_1" pos="1" endPos="50"/>
  <laneAreaDetector file="ild.out" freq="5" id="nt9_nt8_1" lane="nt9_nt8_1" pos="1" endPos="50"/>
  <laneAreaDetector file="ild.out" freq="5" id="nt9_nt10_0" lane="nt9_nt10_0" pos="1" endPos="50"/>
  <laneAreaDetector file="ild.out" freq="5" id="nt10_nt9_0" lane="nt10_nt9_0" pos="1" endPos="50"/>
  <laneAreaDetector file="ild.out" freq="5" id="nt9_nt10_1" lane="nt9_nt10_1" pos="1" endPos="50"/>
  <laneAreaDetector file="ild.out" freq="5" id="nt10_nt9_1" lane="nt10_nt9_1" pos="1" endPos="50"/>
  <laneAreaDetector file="ild.out" freq="5" id="nt10_nt11_0" lane="nt10_nt11_0" pos="1" endPos="50"/>
  <laneAreaDetector file="ild.out" freq="5" id="nt11_nt10_0" lane="nt11_nt10_0" pos="1" endPos="50"/>
  <laneAreaDetector file="ild.out" freq="5" id="nt10_nt11_1" lane="nt10_nt11_1" pos="1" endPos="50"/>
  <laneAreaDetector file="ild.out" freq="5" id="nt11_nt10_1" lane="nt11_nt10_1" pos="1" endPos="50"/>
  <laneAreaDetector file="ild.out" freq="5" id="nt11_nt12_0" lane="nt11_nt12_0" pos="1" endPos="50"/>
  <laneAreaDetector file="ild.out" freq="5" id="nt12_nt11_0" lane="nt12_nt11_0" pos="1" endPos="50"/>
  <laneAreaDetector file="ild.out" freq="5" id="nt11_nt12_1" lane="nt11_nt12_1" pos="1" endPos="50"/>
  <laneAreaDetector file="ild.out" freq="5" id="nt12_nt11_1" lane="nt12_nt11_1" pos="1" endPos="50"/>
  <laneAreaDetector file="ild.out" freq="5" id="nt13_nt14_0" lane="nt13_nt14_0" pos="1" endPos="50"/>
  <laneAreaDetector file="ild.out" freq="5" id="nt14_nt13_0" lane="nt14_nt13_0" pos="1" endPos="50"/>
  <laneAreaDetector file="ild.out" freq="5" id="nt13_nt14_1" lane="nt13_nt14_1" pos="1" endPos="50"/>
  <laneAreaDetector file="ild.out" freq="5" id="nt14_nt13_1" lane="nt14_nt13_1" pos="1" endPos="50"/>
  <laneAreaDetector file="ild.out" freq="5" id="nt14_nt15_0" lane="nt14_nt15_0" pos="1" endPos="50"/>
  <laneAreaDetector file="ild.out" freq="5" id="nt15_nt14_0" lane="nt15_nt14_0" pos="1" endPos="50"/>
  <laneAreaDetector file="ild.out" freq="5" id="nt14_nt15_1" lane="nt14_nt15_1" pos="1" endPos="50"/>
  <laneAreaDetector file="ild.out" freq="5" id="nt15_nt14_1" lane="nt15_nt14_1" pos="1" endPos="50"/>
  <laneAreaDetector file="ild.out" freq="5" id="nt15_nt16_0" lane="nt15_nt16_0" pos="1" endPos="50"/>
  <laneAreaDetector file="ild.out" freq="5" id="nt16_nt15_0" lane="nt16_nt15_0" pos="1" endPos="50"/>
  <laneAreaDetector file="ild.out" freq="5" id="nt15_nt16_1" lane="nt15_nt16_1" pos="1" endPos="50"/>
  <laneAreaDetector file="ild.out" freq="5" id="nt16_nt15_1" lane="nt16_nt15_1" pos="1" endPos="50"/>
  <laneAreaDetector file="ild.out" freq="5" id="nt16_nt17_0" lane="nt16_nt17_0" pos="1" endPos="50"/>
  <laneAreaDetector file="ild.out" freq="5" id="nt17_nt16_0" lane="nt17_nt16_0" pos="1" endPos="50"/>
  <laneAreaDetector file="ild.out" freq="5" id="nt16_nt17_1" lane="nt16_nt17_1" pos="1" endPos="50"/>
  <laneAreaDetector file="ild.out" freq="5" id="nt17_nt16_1" lane="nt17_nt16_1" pos="1" endPos="50"/>
  <laneAreaDetector file="ild.out" freq="5" id="nt17_nt18_0" lane="nt17_nt18_0" pos="1" endPos="50"/>
  <laneAreaDetector file="ild.out" freq="5" id="nt18_nt17_0" lane="nt18_nt17_0" pos="1" endPos="50"/>
  <laneAreaDetector file="ild.out" freq="5" id="nt17_nt18_1" lane="nt17_nt18_1" pos="1" endPos="50"/>
  <laneAreaDetector file="ild.out" freq="5" id="nt18_nt17_1" lane="nt18_nt17_1" pos="1" endPos="50"/>
  <laneAreaDetector file="ild.out" freq="5" id="nt19_nt20_0" lane="nt19_nt20_0" pos="1" endPos="50"/>
  <laneAreaDetector file="ild.out" freq="5" id="nt20_nt19_0" lane="nt20_nt19_0" pos="1" endPos="50"/>
  <laneAreaDetector file="ild.out" freq="5" id="nt19_nt20_1" lane="nt19_nt20_1" pos="1" endPos="50"/>
  <laneAreaDetector file="ild.out" freq="5" id="nt20_nt19_1" lane="nt20_nt19_1" pos="1" endPos="50"/>
  <laneAreaDetector file="ild.out" freq="5" id="nt20_nt21_0" lane="nt20_nt21_0" pos="1" endPos="50"/>
  <laneAreaDetector file="ild.out" freq="5" id="nt21_nt20_0" lane="nt21_nt20_0" pos="1" endPos="50"/>
  <laneAreaDetector file="ild.out" freq="5" id="nt20_nt21_1" lane="nt20_nt21_1" pos="1" endPos="50"/>
  <laneAreaDetector file="ild.out" freq="5" id="nt21_nt20_1" lane="nt21_nt20_1" pos="1" endPos="50"/>
  <laneAreaDetector file="ild.out" freq="5" id="nt21_nt22_0" lane="nt21_nt22_0" pos="1" endPos="50"/>
  <laneAreaDetector file="ild.out" freq="5" id="nt22_nt21_0" lane="nt22_nt21_0" pos="1" endPos="50"/>
  <laneAreaDetector file="ild.out" freq="5" id="nt21_nt22_1" lane="nt21_nt22_1" pos="1" endPos="50"/>
  <laneAreaDetector file="ild.out" freq="5" id="nt22_nt21_1" lane="nt22_nt21_1" pos="1" endPos="50"/>
  <laneAreaDetector file="ild.out" freq="5" id="nt22_nt23_0" lane="nt22_nt23_0" pos="1" endPos="50"/>
  <laneAreaDetector file="ild.out" freq="5" id="nt23_nt22_0" lane="nt23_nt22_0" pos="1" endPos="50"/>
  <laneAreaDetector file="ild.out" freq="5" id="nt22_nt23_1" lane="nt22_nt23_1" pos="1" endPos="50"/>
  <laneAreaDetector file="ild.out" freq="5" id="nt23_nt22_1" lane="nt23_nt22_1" pos="1" endPos="50"/>
  <laneAreaDetector file="ild.out" freq="5" id="nt23_nt24_0" lane="nt23_nt24_0" pos="1" endPos="50"/>
  <laneAreaDetector file="ild.out" freq="5" id="nt24_nt23_0" lane="nt24_nt23_0" pos="1" endPos="50"/>
  <laneAreaDetector file="ild.out" freq="5" id="nt23_nt24_1" lane="nt23_nt24_1" pos="1" endPos="50"/>
  <laneAreaDetector file="ild.out" freq="5" id="nt24_nt23_1" lane="nt24_nt23_1" pos="1" endPos="50"/>
  <laneAreaDetector file="ild.out" freq="5" id="nt25_nt26_0" lane="nt25_nt26_0" pos="1" endPos="50"/>
  <laneAreaDetector file="ild.out" freq="5" id="nt26_nt25_0" lane="nt26_nt25_0" pos="1" endPos="50"/>
  <laneAreaDetector file="ild.out" freq="5" id="nt25_nt26_1" lane="nt25_nt26_1" pos="1" endPos="50"/>
  <laneAreaDetector file="ild.out" freq="5" id="nt26_nt25_1" lane="nt26_nt25_1" pos="1" endPos="50"/>
  <laneAreaDetector file="ild.out" freq="5" id="nt26_nt27_0" lane="nt26_nt27_0" pos="1" endPos="50"/>
  <laneAreaDetector file="ild.out" freq="5" id="nt27_nt26_0" lane="nt27_nt26_0" pos="1" endPos="50"/>
  <laneAreaDetector file="ild.out" freq="5" id="nt26_nt27_1" lane="nt26_nt27_1" pos="1" endPos="50"/>
  <laneAreaDetector file="ild.out" freq="5" id="nt27_nt26_1" lane="nt27_nt26_1" pos="1" endPos="50"/>
  <laneAreaDetector file="ild.out" freq="5" id="nt27_nt28_0" lane="nt27_nt28_0" pos="1" endPos="50"/>
  <laneAreaDetector file="ild.out" freq="5" id="nt28_nt27_0" lane="nt28_nt27_0" pos="1" endPos="50"/>
  <laneAreaDetector file="ild.out" freq="5" id="nt27_nt28_1" lane="nt27_nt28_1" pos="1" endPos="50"/>
  <laneAreaDetector file="ild.out" freq="5" id="nt28_nt27_1" lane="nt28_nt27_1" pos="1" endPos="50"/>
  <laneAreaDetector file="ild.out" freq="5" id="nt28_nt29_0" lane="nt28_nt29_0" pos="1" endPos="50"/>
  <laneAreaDetector file="ild.out" freq="5" id="nt29_nt28_0" lane="nt29_nt28_0" pos="1" endPos="50"/>
  <laneAreaDetector file="ild.out" freq="5" id="nt28_nt29_1" lane="nt28_nt29_1" pos="1" endPos="50"/>
  <laneAreaDetector file="ild.out" freq="5" id="nt29_nt28_1" lane="nt29_nt28_1" pos="1" endPos="50"/>
  <laneAreaDetector file="ild.out" freq="5" id="nt29_nt30_0" lane="nt29_nt30_0" pos="1" endPos="50"/>
  <laneAreaDetector file="ild.out" freq="5" id="nt30_nt29_0" lane="nt30_nt29_0" pos="1" endPos="50"/>
  <laneAreaDetector file="ild.out" freq="5" id="nt29_nt30_1" lane="nt29_nt30_1" pos="1" endPos="50"/>
  <laneAreaDetector file="ild.out" freq="5" id="nt30_nt29_1" lane="nt30_nt29_1" pos="1" endPos="50"/>
  <laneAreaDetector file="ild.out" freq="5" id="nt31_nt32_0" lane="nt31_nt32_0" pos="1" endPos="50"/>
  <laneAreaDetector file="ild.out" freq="5" id="nt32_nt31_0" lane="nt32_nt31_0" pos="1" endPos="50"/>
  <laneAreaDetector file="ild.out" freq="5" id="nt31_nt32_1" lane="nt31_nt32_1" pos="1" endPos="50"/>
  <laneAreaDetector file="ild.out" freq="5" id="nt32_nt31_1" lane="nt32_nt31_1" pos="1" endPos="50"/>
  <laneAreaDetector file="ild.out" freq="5" id="nt32_nt33_0" lane="nt32_nt33_0" pos="1" endPos="50"/>
  <laneAreaDetector file="ild.out" freq="5" id="nt33_nt32_0" lane="nt33_nt32_0" pos="1" endPos="50"/>
  <laneAreaDetector file="ild.out" freq="5" id="nt32_nt33_1" lane="nt32_nt33_1" pos="1" endPos="50"/>
  <laneAreaDetector file="ild.out" freq="5" id="nt33_nt32_1" lane="nt33_nt32_1" pos="1" endPos="50"/>
  <laneAreaDetector file="ild.out" freq="5" id="nt33_nt34_0" lane="nt33_nt34_0" pos="1" endPos="50"/>
  <laneAreaDetector file="ild.out" freq="5" id="nt34_nt33_0" lane="nt34_nt33_0" pos="1" endPos="50"/>
  <laneAreaDetector file="ild.out" freq="5" id="nt33_nt34_1" lane="nt33_nt34_1" pos="1" endPos="50"/>
  <laneAreaDetector file="ild.out" freq="5" id="nt34_nt33_1" lane="nt34_nt33_1" pos="1" endPos="50"/>
  <laneAreaDetector file="ild.out" freq="5" id="nt34_nt35_0" lane="nt34_nt35_0" pos="1" endPos="50"/>
  <laneAreaDetector file="ild.out" freq="5" id="nt35_nt34_0" lane="nt35_nt34_0" pos="1" endPos="50"/>
  <laneAreaDetector file="ild.out" freq="5" id="nt34_nt35_1" lane="nt34_nt35_1" pos="1" endPos="50"/>
  <laneAreaDetector file="ild.out" freq="5" id="nt35_nt34_1" lane="nt35_nt34_1" pos="1" endPos="50"/>
  <laneAreaDetector file="ild.out" freq="5" id="nt35_nt36_0" lane="nt35_nt36_0" pos="1" endPos="50"/>
  <laneAreaDetector file="ild.out" freq="5" id="nt36_nt35_0" lane="nt36_nt35_0" pos="1" endPos="50"/>
  <laneAreaDetector file="ild.out" freq="5" id="nt35_nt36_1" lane="nt35_nt36_1" pos="1" endPos="50"/>
  <laneAreaDetector file="ild.out" freq="5" id="nt36_nt35_1" lane="nt36_nt35_1" pos="1" endPos="50"/>
  <laneAreaDetector file="ild.out" freq="5" id="nt1_nt7_0" lane="nt1_nt7_0" pos="1" endPos="50"/>
  <laneAreaDetector file="ild.out" freq="5" id="nt7_nt1_0" lane="nt7_nt1_0" pos="1" endPos="50"/>
  <laneAreaDetector file="ild.out" freq="5" id="nt7_nt13_0" lane="nt7_nt13_0" pos="1" endPos="50"/>
  <laneAreaDetector file="ild.out" freq="5" id="nt13_nt7_0" lane="nt13_nt7_0" pos="1" endPos="50"/>
  <laneAreaDetector file="ild.out" freq="5" id="nt13_nt19_0" lane="nt13_nt19_0" pos="1" endPos="50"/>
  <laneAreaDetector file="ild.out" freq="5" id="nt19_nt13_0" lane="nt19_nt13_0" pos="1" endPos="50"/>
  <laneAreaDetector file="ild.out" freq="5" id="nt19_nt25_0" lane="nt19_nt25_0" pos="1" endPos="50"/>
  <laneAreaDetector file="ild.out" freq="5" id="nt25_nt19_0" lane="nt25_nt19_0" pos="1" endPos="50"/>
  <laneAreaDetector file="ild.out" freq="5" id="nt25_nt31_0" lane="nt25_nt31_0" pos="1" endPos="50"/>
  <laneAreaDetector file="ild.out" freq="5" id="nt31_nt25_0" lane="nt31_nt25_0" pos="1" endPos="50"/>
  <laneAreaDetector file="ild.out" freq="5" id="nt2_nt8_0" lane="nt2_nt8_0" pos="1" endPos="50"/>
  <laneAreaDetector file="ild.out" freq="5" id="nt8_nt2_0" lane="nt8_nt2_0" pos="1" endPos="50"/>
  <laneAreaDetector file="ild.out" freq="5" id="nt8_nt14_0" lane="nt8_nt14_0" pos="1" endPos="50"/>
  <laneAreaDetector file="ild.out" freq="5" id="nt14_nt8_0" lane="nt14_nt8_0" pos="1" endPos="50"/>
  <laneAreaDetector file="ild.out" freq="5" id="nt14_nt20_0" lane="nt14_nt20_0" pos="1" endPos="50"/>
  <laneAreaDetector file="ild.out" freq="5" id="nt20_nt14_0" lane="nt20_nt14_0" pos="1" endPos="50"/>
  <laneAreaDetector file="ild.out" freq="5" id="nt20_nt26_0" lane="nt20_nt26_0" pos="1" endPos="50"/>
  <laneAreaDetector file="ild.out" freq="5" id="nt26_nt20_0" lane="nt26_nt20_0" pos="1" endPos="50"/>
  <laneAreaDetector file="ild.out" freq="5" id="nt26_nt32_0" lane="nt26_nt32_0" pos="1" endPos="50"/>
  <laneAreaDetector file="ild.out" freq="5" id="nt32_nt26_0" lane="nt32_nt26_0" pos="1" endPos="50"/>
  <laneAreaDetector file="ild.out" freq="5" id="nt3_nt9_0" lane="nt3_nt9_0" pos="1" endPos="50"/>
  <laneAreaDetector file="ild.out" freq="5" id="nt9_nt3_0" lane="nt9_nt3_0" pos="1" endPos="50"/>
  <laneAreaDetector file="ild.out" freq="5" id="nt9_nt15_0" lane="nt9_nt15_0" pos="1" endPos="50"/>
  <laneAreaDetector file="ild.out" freq="5" id="nt15_nt9_0" lane="nt15_nt9_0" pos="1" endPos="50"/>
  <laneAreaDetector file="ild.out" freq="5" id="nt15_nt21_0" lane="nt15_nt21_0" pos="1" endPos="50"/>
  <laneAreaDetector file="ild.out" freq="5" id="nt21_nt15_0" lane="nt21_nt15_0" pos="1" endPos="50"/>
  <laneAreaDetector file="ild.out" freq="5" id="nt21_nt27_0" lane="nt21_nt27_0" pos="1" endPos="50"/>
  <laneAreaDetector file="ild.out" freq="5" id="nt27_nt21_0" lane="nt27_nt21_0" pos="1" endPos="50"/>
  <laneAreaDetector file="ild.out" freq="5" id="nt27_nt33_0" lane="nt27_nt33_0" pos="1" endPos="50"/>
  <laneAreaDetector file="ild.out" freq="5" id="nt33_nt27_0" lane="nt33_nt27_0" pos="1" endPos="50"/>
  <laneAreaDetector file="ild.out" freq="5" id="nt4_nt10_0" lane="nt4_nt10_0" pos="1" endPos="50"/>
  <laneAreaDetector file="ild.out" freq="5" id="nt10_nt4_0" lane="nt10_nt4_0" pos="1" endPos="50"/>
  <laneAreaDetector file="ild.out" freq="5" id="nt10_nt16_0" lane="nt10_nt16_0" pos="1" endPos="50"/>
  <laneAreaDetector file="ild.out" freq="5" id="nt16_nt10_0" lane="nt16_nt10_0" pos="1" endPos="50"/>
  <laneAreaDetector file="ild.out" freq="5" id="nt16_nt22_0" lane="nt16_nt22_0" pos="1" endPos="50"/>
  <laneAreaDetector file="ild.out" freq="5" id="nt22_nt16_0" lane="nt22_nt16_0" pos="1" endPos="50"/>
  <laneAreaDetector file="ild.out" freq="5" id="nt22_nt28_0" lane="nt22_nt28_0" pos="1" endPos="50"/>
  <laneAreaDetector file="ild.out" freq="5" id="nt28_nt22_0" lane="nt28_nt22_0" pos="1" endPos="50"/>
  <laneAreaDetector file="ild.out" freq="5" id="nt28_nt34_0" lane="nt28_nt34_0" pos="1" endPos="50"/>
  <laneAreaDetector file="ild.out" freq="5" id="nt34_nt28_0" lane="nt34_nt28_0" pos="1" endPos="50"/>
  <laneAreaDetector file="ild.out" freq="5" id="nt5_nt11_0" lane="nt5_nt11_0" pos="1" endPos="50"/>
  <laneAreaDetector file="ild.out" freq="5" id="nt11_nt5_0" lane="nt11_nt5_0" pos="1" endPos="50"/>
  <laneAreaDetector file="ild.out" freq="5" id="nt11_nt17_0" lane="nt11_nt17_0" pos="1" endPos="50"/>
  <laneAreaDetector file="ild.out" freq="5" id="nt17_nt11_0" lane="nt17_nt11_0" pos="1" endPos="50"/>
  <laneAreaDetector file="ild.out" freq="5" id="nt17_nt23_0" lane="nt17_nt23_0" pos="1" endPos="50"/>
  <laneAreaDetector file="ild.out" freq="5" id="nt23_nt17_0" lane="nt23_nt17_0" pos="1" endPos="50"/>
  <laneAreaDetector file="ild.out" freq="5" id="nt23_nt29_0" lane="nt23_nt29_0" pos="1" endPos="50"/>
  <laneAreaDetector file="ild.out" freq="5" id="nt29_nt23_0" lane="nt29_nt23_0" pos="1" endPos="50"/>
  <laneAreaDetector file="ild.out" freq="5" id="nt29_nt35_0" lane="nt29_nt35_0" pos="1" endPos="50"/>
  <laneAreaDetector file="ild.out" freq="5" id="nt35_nt29_0" lane="nt35_nt29_0" pos="1" endPos="50"/>
  <laneAreaDetector file="ild.out" freq="5" id="nt6_nt12_0" lane="nt6_nt12_0" pos="1" endPos="50"/>
  <laneAreaDetector file="ild.out" freq="5" id="nt12_nt6_0" lane="nt12_nt6_0" pos="1" endPos="50"/>
  <laneAreaDetector file="ild.out" freq="5" id="nt12_nt18_0" lane="nt12_nt18_0" pos="1" endPos="50"/>
  <laneAreaDetector file="ild.out" freq="5" id="nt18_nt12_0" lane="nt18_nt12_0" pos="1" endPos="50"/>
  <laneAreaDetector file="ild.out" freq="5" id="nt18_nt24_0" lane="nt18_nt24_0" pos="1" endPos="50"/>
  <laneAreaDetector file="ild.out" freq="5" id="nt24_nt18_0" lane="nt24_nt18_0" pos="1" endPos="50"/>
  <laneAreaDetector file="ild.out" freq="5" id="nt24_nt30_0" lane="nt24_nt30_0" pos="1" endPos="50"/>
  <laneAreaDetector file="ild.out" freq="5" id="nt30_nt24_0" lane="nt30_nt24_0" pos="1" endPos="50"/>
  <laneAreaDetector file="ild.out" freq="5" id="nt30_nt36_0" lane="nt30_nt36_0" pos="1" endPos="50"/>
  <laneAreaDetector file="ild.out" freq="5" id="nt36_nt30_0" lane="nt36_nt30_0" pos="1" endPos="50"/>
  <laneAreaDetector file="ild.out" freq="5" id="oppo_np7_nt6_0" lane="np7_nt6_0" pos="-50" endPos="-1"/>
  <laneAreaDetector file="ild.out" freq="5" id="oppo_np7_nt6_1" lane="np7_nt6_1" pos="-50" endPos="-1"/>
  <laneAreaDetector file="ild.out" freq="5" id="oppo_np8_nt12_0" lane="np8_nt12_0" pos="-50" endPos="-1"/>
  <laneAreaDetector file="ild.out" freq="5" id="oppo_np8_nt12_1" lane="np8_nt12_1" pos="-50" endPos="-1"/>
  <laneAreaDetector file="ild.out" freq="5" id="oppo_np9_nt18_0" lane="np9_nt18_0" pos="-50" endPos="-1"/>
  <laneAreaDetector file="ild.out" freq="5" id="oppo_np9_nt18_1" lane="np9_nt18_1" pos="-50" endPos="-1"/>
  <laneAreaDetector file="ild.out" freq="5" id="oppo_np10_nt24_0" lane="np10_nt24_0" pos="-50" endPos="-1"/>
  <laneAreaDetector file="ild.out" freq="5" id="oppo_np10_nt24_1" lane="np10_nt24_1" pos="-50" endPos="-1"/>
  <laneAreaDetector file="ild.out" freq="5" id="oppo_np11_nt30_0" lane="np11_nt30_0" pos="-50" endPos="-1"/>
  <laneAreaDetector file="ild.out" freq="5" id="oppo_np11_nt30_1" lane="np11_nt30_1" pos="-50" endPos="-1"/>
  <laneAreaDetector file="ild.out" freq="5" id="oppo_np12_nt36_0" lane="np12_nt36_0" pos="-50" endPos="-1"/>
  <laneAreaDetector file="ild.out" freq="5" id="oppo_np12_nt36_1" lane="np12_nt36_1" pos="-50" endPos="-1"/>
  <laneAreaDetector file="ild.out" freq="5" id="oppo_np19_nt31_0" lane="np19_nt31_0" pos="-50" endPos="-1"/>
  <laneAreaDetector file="ild.out" freq="5" id="oppo_np19_nt31_1" lane="np19_nt31_1" pos="-50" endPos="-1"/>
  <laneAreaDetector file="ild.out" freq="5" id="oppo_np20_nt25_0" lane="np20_nt25_0" pos="-50" endPos="-1"/>
  <laneAreaDetector file="ild.out" freq="5" id="oppo_np20_nt25_1" lane="np20_nt25_1" pos="-50" endPos="-1"/>
  <laneAreaDetector file="ild.out" freq="5" id="oppo_np21_nt19_0" lane="np21_nt19_0" pos="-50" endPos="-1"/>
  <laneAreaDetector file="ild.out" freq="5" id="oppo_np21_nt19_1" lane="np21_nt19_1" pos="-50" endPos="-1"/>
  <laneAreaDetector file="ild.out" freq="5" id="oppo_np22_nt13_0" lane="np22_nt13_0" pos="-50" endPos="-1"/>
  <laneAreaDetector file="ild.out" freq="5" id="oppo_np22_nt13_1" lane="np22_nt13_1" pos="-50" endPos="-1"/>
  <laneAreaDetector file="ild.out" freq="5" id="oppo_np23_nt7_0" lane="np23_nt7_0" pos="-50" endPos="-1"/>
  <laneAreaDetector file="ild.out" freq="5" id="oppo_np23_nt7_1" lane="np23_nt7_1" pos="-50" endPos="-1"/>
  <laneAreaDetector file="ild.out" freq="5" id="oppo_np24_nt1_0" lane="np24_nt1_0" pos="-50" endPos="-1"/>
  <laneAreaDetector file="ild.out" freq="5" id="oppo_np24_nt1_1" lane="np24_nt1_1" pos="-50" endPos="-1"/>
  <laneAreaDetector file="ild.out" freq="5" id="oppo_np1_nt1_0" lane="np1_nt1_0" pos="-50" endPos="-1"/>
  <laneAreaDetector file="ild.out" freq="5" id="oppo_np2_nt2_0" lane="np2_nt2_0" pos="-50" endPos="-1"/>
  <laneAreaDetector file="ild.out" freq="5" id="oppo_np3_nt3_0" lane="np3_nt3_0" pos="-50" endPos="-1"/>
  <laneAreaDetector file="ild.out" freq="5" id="oppo_np4_nt4_0" lane="np4_nt4_0" pos="-50" endPos="-1"/>
  <laneAreaDetector file="ild.out" freq="5" id="oppo_np5_nt5_0" lane="np5_nt5_0" pos="-50" endPos="-1"/>
  <laneAreaDetector file="ild.out" freq="5" id="oppo_np6_nt6_0" lane="np6_nt6_0" pos="-50" endPos="-1"/>
  <laneAreaDetector file="ild.out" freq="5" id="oppo_np13_nt36_0" lane="np13_nt36_0" pos="-50" endPos="-1"/>
  <laneAreaDetector file="ild.out" freq="5" id="oppo_np14_nt35_0" lane="np14_nt35_0" pos="-50" endPos="-1"/>
  <laneAreaDetector file="ild.out" freq="5" id="oppo_np15_nt34_0" lane="np15_nt34_0" pos="-50" endPos="-1"/>
  <laneAreaDetector file="ild.out" freq="5" id="oppo_np16_nt33_0" lane="np16_nt33_0" pos="-50" endPos="-1"/>
  <laneAreaDetector file="ild.out" freq="5" id="oppo_np17_nt32_0" lane="np17_nt32_0" pos="-50" endPos="-1"/>
  <laneAreaDetector file="ild.out" freq="5" id="oppo_np18_nt31_0" lane="np18_nt31_0" pos="-50" endPos="-1"/>
  <laneAreaDetector file="ild.out" freq="5" id="oppo_nt1_nt2_0" lane="nt1_nt2_0" pos="-50" endPos="-1"/>
  <laneAreaDetector file="ild.out" freq="5" id="oppo_nt2_nt1_0" lane="nt2_nt1_0" pos="-50" endPos="-1"/>
  <laneAreaDetector file="ild.out" freq="5" id="oppo_nt1_nt2_1" lane="nt1_nt2_1" pos="-50" endPos="-1"/>
  <laneAreaDetector file="ild.out" freq="5" id="oppo_nt2_nt1_1" lane="nt2_nt1_1" pos="-50" endPos="-1"/>
  <laneAreaDetector file="ild.out" freq="5" id="oppo_nt2_nt3_0" lane="nt2_nt3_0" pos="-50" endPos="-1"/>
  <laneAreaDetector file="ild.out" freq="5" id="oppo_nt3_nt2_0" lane="nt3_nt2_0" pos="-50" endPos="-1"/>
  <laneAreaDetector file="ild.out" freq="5" id="oppo_nt2_nt3_1" lane="nt2_nt3_1" pos="-50" endPos="-1"/>
  <laneAreaDetector file="ild.out" freq="5" id="oppo_nt3_nt2_1" lane="nt3_nt2_1" pos="-50" endPos="-1"/>
  <laneAreaDetector file="ild.out" freq="5" id="oppo_nt3_nt4_0" lane="nt3_nt4_0" pos="-50" endPos="-1"/>
  <laneAreaDetector file="ild.out" freq="5" id="oppo_nt4_nt3_0" lane="nt4_nt3_0" pos="-50" endPos="-1"/>
  <laneAreaDetector file="ild.out" freq="5" id="oppo_nt3_nt4_1" lane="nt3_nt4_1" pos="-50" endPos="-1"/>
  <laneAreaDetector file="ild.out" freq="5" id="oppo_nt4_nt3_1" lane="nt4_nt3_1" pos="-50" endPos="-1"/>
  <laneAreaDetector file="ild.out" freq="5" id="oppo_nt4_nt5_0" lane="nt4_nt5_0" pos="-50" endPos="-1"/>
  <laneAreaDetector file="ild.out" freq="5" id="oppo_nt5_nt4_0" lane="nt5_nt4_0" pos="-50" endPos="-1"/>
  <laneAreaDetector file="ild.out" freq="5" id="oppo_nt4_nt5_1" lane="nt4_nt5_1" pos="-50" endPos="-1"/>
  <laneAreaDetector file="ild.out" freq="5" id="oppo_nt5_nt4_1" lane="nt5_nt4_1" pos="-50" endPos="-1"/>
  <laneAreaDetector file="ild.out" freq="5" id="oppo_nt5_nt6_0" lane="nt5_nt6_0" pos="-50" endPos="-1"/>
  <laneAreaDetector file="ild.out" freq="5" id="oppo_nt6_nt5_0" lane="nt6_nt5_0" pos="-50" endPos="-1"/>
  <laneAreaDetector file="ild.out" freq="5" id="oppo_nt5_nt6_1" lane="nt5_nt6_1" pos="-50" endPos="-1"/>
  <laneAreaDetector file="ild.out" freq="5" id="oppo_nt6_nt5_1" lane="nt6_nt5_1" pos="-50" endPos="-1"/>
  <laneAreaDetector file="ild.out" freq="5" id="oppo_nt7_nt8_0" lane="nt7_nt8_0" pos="-50" endPos="-1"/>
  <laneAreaDetector file="ild.out" freq="5" id="oppo_nt8_nt7_0" lane="nt8_nt7_0" pos="-50" endPos="-1"/>
  <laneAreaDetector file="ild.out" freq="5" id="oppo_nt7_nt8_1" lane="nt7_nt8_1" pos="-50" endPos="-1"/>
  <laneAreaDetector file="ild.out" freq="5" id="oppo_nt8_nt7_1" lane="nt8_nt7_1" pos="-50" endPos="-1"/>
  <laneAreaDetector file="ild.out" freq="5" id="oppo_nt8_nt9_0" lane="nt8_nt9_0" pos="-50" endPos="-1"/>
  <laneAreaDetector file="ild.out" freq="5" id="oppo_nt9_nt8_0" lane="nt9_nt8_0" pos="-50" endPos="-1"/>
  <laneAreaDetector file="ild.out" freq="5" id="oppo_nt8_nt9_1" lane="nt8_nt9_1" pos="-50" endPos="-1"/>
  <laneAreaDetector file="ild.out" freq="5" id="oppo_nt9_nt8_1" lane="nt9_nt8_1" pos="-50" endPos="-1"/>
  <laneAreaDetector file="ild.out" freq="5" id="oppo_nt9_nt10_0" lane="nt9_nt10_0" pos="-50" endPos="-1"/>
  <laneAreaDetector file="ild.out" freq="5" id="oppo_nt10_nt9_0" lane="nt10_nt9_0" pos="-50" endPos="-1"/>
  <laneAreaDetector file="ild.out" freq="5" id="oppo_nt9_nt10_1" lane="nt9_nt10_1" pos="-50" endPos="-1"/>
  <laneAreaDetector file="ild.out" freq="5" id="oppo_nt10_nt9_1" lane="nt10_nt9_1" pos="-50" endPos="-1"/>
  <laneAreaDetector file="ild.out" freq="5" id="oppo_nt10_nt11_0" lane="nt10_nt11_0" pos="-50" endPos="-1"/>
  <laneAreaDetector file="ild.out" freq="5" id="oppo_nt11_nt10_0" lane="nt11_nt10_0" pos="-50" endPos="-1"/>
  <laneAreaDetector file="ild.out" freq="5" id="oppo_nt10_nt11_1" lane="nt10_nt11_1" pos="-50" endPos="-1"/>
  <laneAreaDetector file="ild.out" freq="5" id="oppo_nt11_nt10_1" lane="nt11_nt10_1" pos="-50" endPos="-1"/>
  <laneAreaDetector file="ild.out" freq="5" id="oppo_nt11_nt12_0" lane="nt11_nt12_0" pos="-50" endPos="-1"/>